Circuit: * C:\Users\seijirom\Dropbox\work\LRmasterSlice\pipe_line_ADC\Draft5.asc

