Circuit: * C:\Users\seijirom\Dropbox\work\LRmasterSlice\pipe_line_ADC\MNN_iv.asc

WARNING: Can't resolve .param mnn_du0_sigma=nmos_sigma_global
Questionable use of curly braces in ".model mnn nmos  level = 49  version = 3.3  tnom = 27  mobmod = 1  capmod = 2  paramchk = 1  nqsmod = 0  tox = {1.350e-008+mnn_dtox}  xj = 2.5e-007  nch = 1.6e+017  vth0 = {0.1756+mnn_dvth0}  k1 = 0.4094  k2 = 0.06078  k3 = 10  k3b = 0  w0 = 2.5e-006  nlx = 8.009e-007  dvt0 = 2  dvt1 = 0.7678  dvt2 = 0.02202  dvt0w = 0.1323  dvt1w = 1.305e+005  dvt2w = -0.0255  u0 = {0.05102+mnn_du0}  ua = 3.432e-010  ub = 3e-018  uc = 4.872e-011  vsat = 6.626e+004  a0 = 1.585  ags = 0.2022  b0 = 0  b1 = 0  keta = -0.03  a1 = 0  a2 = 1  rdsw = 1300  prwg = 0  prwb = 0  wr = 1  lint = 8.182e-009  wint = 1.5e-007  xl = {0+mnn_dxl}  xw = {0+mnn_dxw}  dwg = 0  dwb = 0  voff = -0.06781  nfactor = 0.3864  cit = 0  cdsc = 0.00024  cdscd = 0  cdscb = 2.721e-005  eta0 = 0.13  etab = -0.038  dsub = 0.56  pclm = 5  pdiblc1 = 0.05447  pdiblc2 = 0.001  pdiblcb = 0  drout = 0.56  pscbe1 = 5.93e+008  pscbe2 = 5e-005  pvag = 0  delta = 0.02  alpha0 = 2e-007  beta0 = 36  alpha1 = 12.5  rsh = 40  hdif = 8e-007  xpart = 0  voffcv = 0  cgdo = 0  cgso = 0  cgbo = 0  cgsl = 0  cgdl = 0  ckappa = 0.6  cf = 0  clc = 1e-007  cle = 0.6  dlc = 0  dwc = 0  noff = 1  acde = 1  moin = 15  js = 2e-007  jsw = 0  ijth = 0.1  cj = 0.0005  mj = 0.5  pb = 1  cjsw = 5e-010  mjsw = 0.33  pbsw = 1  cjswg = 5e-010  mjswg = 0.33  pbswg = 1  ute = -1.47  kt1 = -0.2723  kt1l = -6e-008  kt2 = -0.02747  ua1 = 3.257e-009  ub1 = -5.429e-018  uc1 = -2.403e-011  at = 3.137e+004  prt = 882.5  wl = -6.2e-014  wln = 1  ww = -4.843e-014  wwn = 1  wwl = 5e-020  ll = 4.362e-014  lln = 1  lw = 0  lwn = 1  lwl = 0  noimod = 2  noia = 1e+020  noib = 5e+004  noic = -1.4e-012  em = 4.1e+007  af = 1  ef = 1  kf = 0  lintnoi = 0  tcj = 0  tcjsw = 0  tcjswg = 0  tpb = 0  tpbsw = 0  tpbswg = 0  lvth0 = -0.07003  wvth0 = -0.0138  pvth0 = 0  lk1 = -0.06819  wk1 = 0.025  pk1 = 0  lu0 = -0.001214  wu0 = 0.001445  pu0 = 0  lua = -9.268e-010  wua = 6.999e-010  pua = -3.5e-010  lub = -1e-018  wub = -1.385e-018  pub = 3e-019  luc = -1.119e-010  wuc = -6e-011  puc = 0  la0 = -0.397  wa0 = 0.03451  pa0 = 0  lags = -0.0128  wags = -0.03688  pags = 0  lketa = 0.02  wketa = 0.01373  pketa = -0.025  lalpha0 = 0  walpha0 = 0  palpha0 = 0  lalpha1 = 0  walpha1 = 0  palpha1 = 0  lbeta0 = 0  wbeta0 = 0  pbeta0 = 0  lkt1 = 0.02208  wkt1 = 0  pkt1 = 0  lkt2 = 0.002256  wkt2 = 0  pkt2 = 0  lute = -0.2447  wute = 0.1  pute = 0  lua1 = -1.652e-009  wua1 = 0  pua1 = 0  lub1 = 2.816e-018  wub1 = -3e-019  pub1 = 0  luc1 = 6e-011  wuc1 = 0  puc1 = 0  xti = 3  pvsat = 5000"
    Error: undefined symbol in: "1.350e-008+[mnn_dtox]"
Questionable use of curly braces in ".model mnn nmos  level = 49  version = 3.3  tnom = 27  mobmod = 1  capmod = 2  paramchk = 1  nqsmod = 0  tox = (1.350e-008+mnn_dtox)  xj = 2.5e-007  nch = 1.6e+017  vth0 = {0.1756+mnn_dvth0}  k1 = 0.4094  k2 = 0.06078  k3 = 10  k3b = 0  w0 = 2.5e-006  nlx = 8.009e-007  dvt0 = 2  dvt1 = 0.7678  dvt2 = 0.02202  dvt0w = 0.1323  dvt1w = 1.305e+005  dvt2w = -0.0255  u0 = {0.05102+mnn_du0}  ua = 3.432e-010  ub = 3e-018  uc = 4.872e-011  vsat = 6.626e+004  a0 = 1.585  ags = 0.2022  b0 = 0  b1 = 0  keta = -0.03  a1 = 0  a2 = 1  rdsw = 1300  prwg = 0  prwb = 0  wr = 1  lint = 8.182e-009  wint = 1.5e-007  xl = {0+mnn_dxl}  xw = {0+mnn_dxw}  dwg = 0  dwb = 0  voff = -0.06781  nfactor = 0.3864  cit = 0  cdsc = 0.00024  cdscd = 0  cdscb = 2.721e-005  eta0 = 0.13  etab = -0.038  dsub = 0.56  pclm = 5  pdiblc1 = 0.05447  pdiblc2 = 0.001  pdiblcb = 0  drout = 0.56  pscbe1 = 5.93e+008  pscbe2 = 5e-005  pvag = 0  delta = 0.02  alpha0 = 2e-007  beta0 = 36  alpha1 = 12.5  rsh = 40  hdif = 8e-007  xpart = 0  voffcv = 0  cgdo = 0  cgso = 0  cgbo = 0  cgsl = 0  cgdl = 0  ckappa = 0.6  cf = 0  clc = 1e-007  cle = 0.6  dlc = 0  dwc = 0  noff = 1  acde = 1  moin = 15  js = 2e-007  jsw = 0  ijth = 0.1  cj = 0.0005  mj = 0.5  pb = 1  cjsw = 5e-010  mjsw = 0.33  pbsw = 1  cjswg = 5e-010  mjswg = 0.33  pbswg = 1  ute = -1.47  kt1 = -0.2723  kt1l = -6e-008  kt2 = -0.02747  ua1 = 3.257e-009  ub1 = -5.429e-018  uc1 = -2.403e-011  at = 3.137e+004  prt = 882.5  wl = -6.2e-014  wln = 1  ww = -4.843e-014  wwn = 1  wwl = 5e-020  ll = 4.362e-014  lln = 1  lw = 0  lwn = 1  lwl = 0  noimod = 2  noia = 1e+020  noib = 5e+004  noic = -1.4e-012  em = 4.1e+007  af = 1  ef = 1  kf = 0  lintnoi = 0  tcj = 0  tcjsw = 0  tcjswg = 0  tpb = 0  tpbsw = 0  tpbswg = 0  lvth0 = -0.07003  wvth0 = -0.0138  pvth0 = 0  lk1 = -0.06819  wk1 = 0.025  pk1 = 0  lu0 = -0.001214  wu0 = 0.001445  pu0 = 0  lua = -9.268e-010  wua = 6.999e-010  pua = -3.5e-010  lub = -1e-018  wub = -1.385e-018  pub = 3e-019  luc = -1.119e-010  wuc = -6e-011  puc = 0  la0 = -0.397  wa0 = 0.03451  pa0 = 0  lags = -0.0128  wags = -0.03688  pags = 0  lketa = 0.02  wketa = 0.01373  pketa = -0.025  lalpha0 = 0  walpha0 = 0  palpha0 = 0  lalpha1 = 0  walpha1 = 0  palpha1 = 0  lbeta0 = 0  wbeta0 = 0  pbeta0 = 0  lkt1 = 0.02208  wkt1 = 0  pkt1 = 0  lkt2 = 0.002256  wkt2 = 0  pkt2 = 0  lute = -0.2447  wute = 0.1  pute = 0  lua1 = -1.652e-009  wua1 = 0  pua1 = 0  lub1 = 2.816e-018  wub1 = -3e-019  pub1 = 0  luc1 = 6e-011  wuc1 = 0  puc1 = 0  xti = 3  pvsat = 5000"
    Error: undefined symbol in: "0.1756+[mnn_dvth0]"
Questionable use of curly braces in ".model mnn nmos  level = 49  version = 3.3  tnom = 27  mobmod = 1  capmod = 2  paramchk = 1  nqsmod = 0  tox = (1.350e-008+mnn_dtox)  xj = 2.5e-007  nch = 1.6e+017  vth0 = (0.1756+mnn_dvth0)  k1 = 0.4094  k2 = 0.06078  k3 = 10  k3b = 0  w0 = 2.5e-006  nlx = 8.009e-007  dvt0 = 2  dvt1 = 0.7678  dvt2 = 0.02202  dvt0w = 0.1323  dvt1w = 1.305e+005  dvt2w = -0.0255  u0 = {0.05102+mnn_du0}  ua = 3.432e-010  ub = 3e-018  uc = 4.872e-011  vsat = 6.626e+004  a0 = 1.585  ags = 0.2022  b0 = 0  b1 = 0  keta = -0.03  a1 = 0  a2 = 1  rdsw = 1300  prwg = 0  prwb = 0  wr = 1  lint = 8.182e-009  wint = 1.5e-007  xl = {0+mnn_dxl}  xw = {0+mnn_dxw}  dwg = 0  dwb = 0  voff = -0.06781  nfactor = 0.3864  cit = 0  cdsc = 0.00024  cdscd = 0  cdscb = 2.721e-005  eta0 = 0.13  etab = -0.038  dsub = 0.56  pclm = 5  pdiblc1 = 0.05447  pdiblc2 = 0.001  pdiblcb = 0  drout = 0.56  pscbe1 = 5.93e+008  pscbe2 = 5e-005  pvag = 0  delta = 0.02  alpha0 = 2e-007  beta0 = 36  alpha1 = 12.5  rsh = 40  hdif = 8e-007  xpart = 0  voffcv = 0  cgdo = 0  cgso = 0  cgbo = 0  cgsl = 0  cgdl = 0  ckappa = 0.6  cf = 0  clc = 1e-007  cle = 0.6  dlc = 0  dwc = 0  noff = 1  acde = 1  moin = 15  js = 2e-007  jsw = 0  ijth = 0.1  cj = 0.0005  mj = 0.5  pb = 1  cjsw = 5e-010  mjsw = 0.33  pbsw = 1  cjswg = 5e-010  mjswg = 0.33  pbswg = 1  ute = -1.47  kt1 = -0.2723  kt1l = -6e-008  kt2 = -0.02747  ua1 = 3.257e-009  ub1 = -5.429e-018  uc1 = -2.403e-011  at = 3.137e+004  prt = 882.5  wl = -6.2e-014  wln = 1  ww = -4.843e-014  wwn = 1  wwl = 5e-020  ll = 4.362e-014  lln = 1  lw = 0  lwn = 1  lwl = 0  noimod = 2  noia = 1e+020  noib = 5e+004  noic = -1.4e-012  em = 4.1e+007  af = 1  ef = 1  kf = 0  lintnoi = 0  tcj = 0  tcjsw = 0  tcjswg = 0  tpb = 0  tpbsw = 0  tpbswg = 0  lvth0 = -0.07003  wvth0 = -0.0138  pvth0 = 0  lk1 = -0.06819  wk1 = 0.025  pk1 = 0  lu0 = -0.001214  wu0 = 0.001445  pu0 = 0  lua = -9.268e-010  wua = 6.999e-010  pua = -3.5e-010  lub = -1e-018  wub = -1.385e-018  pub = 3e-019  luc = -1.119e-010  wuc = -6e-011  puc = 0  la0 = -0.397  wa0 = 0.03451  pa0 = 0  lags = -0.0128  wags = -0.03688  pags = 0  lketa = 0.02  wketa = 0.01373  pketa = -0.025  lalpha0 = 0  walpha0 = 0  palpha0 = 0  lalpha1 = 0  walpha1 = 0  palpha1 = 0  lbeta0 = 0  wbeta0 = 0  pbeta0 = 0  lkt1 = 0.02208  wkt1 = 0  pkt1 = 0  lkt2 = 0.002256  wkt2 = 0  pkt2 = 0  lute = -0.2447  wute = 0.1  pute = 0  lua1 = -1.652e-009  wua1 = 0  pua1 = 0  lub1 = 2.816e-018  wub1 = -3e-019  pub1 = 0  luc1 = 6e-011  wuc1 = 0  puc1 = 0  xti = 3  pvsat = 5000"
    Error: undefined symbol in: "0.05102+[mnn_du0]"
Questionable use of curly braces in ".model mnn nmos  level = 49  version = 3.3  tnom = 27  mobmod = 1  capmod = 2  paramchk = 1  nqsmod = 0  tox = (1.350e-008+mnn_dtox)  xj = 2.5e-007  nch = 1.6e+017  vth0 = (0.1756+mnn_dvth0)  k1 = 0.4094  k2 = 0.06078  k3 = 10  k3b = 0  w0 = 2.5e-006  nlx = 8.009e-007  dvt0 = 2  dvt1 = 0.7678  dvt2 = 0.02202  dvt0w = 0.1323  dvt1w = 1.305e+005  dvt2w = -0.0255  u0 = (0.05102+mnn_du0)  ua = 3.432e-010  ub = 3e-018  uc = 4.872e-011  vsat = 6.626e+004  a0 = 1.585  ags = 0.2022  b0 = 0  b1 = 0  keta = -0.03  a1 = 0  a2 = 1  rdsw = 1300  prwg = 0  prwb = 0  wr = 1  lint = 8.182e-009  wint = 1.5e-007  xl = {0+mnn_dxl}  xw = {0+mnn_dxw}  dwg = 0  dwb = 0  voff = -0.06781  nfactor = 0.3864  cit = 0  cdsc = 0.00024  cdscd = 0  cdscb = 2.721e-005  eta0 = 0.13  etab = -0.038  dsub = 0.56  pclm = 5  pdiblc1 = 0.05447  pdiblc2 = 0.001  pdiblcb = 0  drout = 0.56  pscbe1 = 5.93e+008  pscbe2 = 5e-005  pvag = 0  delta = 0.02  alpha0 = 2e-007  beta0 = 36  alpha1 = 12.5  rsh = 40  hdif = 8e-007  xpart = 0  voffcv = 0  cgdo = 0  cgso = 0  cgbo = 0  cgsl = 0  cgdl = 0  ckappa = 0.6  cf = 0  clc = 1e-007  cle = 0.6  dlc = 0  dwc = 0  noff = 1  acde = 1  moin = 15  js = 2e-007  jsw = 0  ijth = 0.1  cj = 0.0005  mj = 0.5  pb = 1  cjsw = 5e-010  mjsw = 0.33  pbsw = 1  cjswg = 5e-010  mjswg = 0.33  pbswg = 1  ute = -1.47  kt1 = -0.2723  kt1l = -6e-008  kt2 = -0.02747  ua1 = 3.257e-009  ub1 = -5.429e-018  uc1 = -2.403e-011  at = 3.137e+004  prt = 882.5  wl = -6.2e-014  wln = 1  ww = -4.843e-014  wwn = 1  wwl = 5e-020  ll = 4.362e-014  lln = 1  lw = 0  lwn = 1  lwl = 0  noimod = 2  noia = 1e+020  noib = 5e+004  noic = -1.4e-012  em = 4.1e+007  af = 1  ef = 1  kf = 0  lintnoi = 0  tcj = 0  tcjsw = 0  tcjswg = 0  tpb = 0  tpbsw = 0  tpbswg = 0  lvth0 = -0.07003  wvth0 = -0.0138  pvth0 = 0  lk1 = -0.06819  wk1 = 0.025  pk1 = 0  lu0 = -0.001214  wu0 = 0.001445  pu0 = 0  lua = -9.268e-010  wua = 6.999e-010  pua = -3.5e-010  lub = -1e-018  wub = -1.385e-018  pub = 3e-019  luc = -1.119e-010  wuc = -6e-011  puc = 0  la0 = -0.397  wa0 = 0.03451  pa0 = 0  lags = -0.0128  wags = -0.03688  pags = 0  lketa = 0.02  wketa = 0.01373  pketa = -0.025  lalpha0 = 0  walpha0 = 0  palpha0 = 0  lalpha1 = 0  walpha1 = 0  palpha1 = 0  lbeta0 = 0  wbeta0 = 0  pbeta0 = 0  lkt1 = 0.02208  wkt1 = 0  pkt1 = 0  lkt2 = 0.002256  wkt2 = 0  pkt2 = 0  lute = -0.2447  wute = 0.1  pute = 0  lua1 = -1.652e-009  wua1 = 0  pua1 = 0  lub1 = 2.816e-018  wub1 = -3e-019  pub1 = 0  luc1 = 6e-011  wuc1 = 0  puc1 = 0  xti = 3  pvsat = 5000"
    Error: undefined symbol in: "0+[mnn_dxl]"
Questionable use of curly braces in ".model mnn nmos  level = 49  version = 3.3  tnom = 27  mobmod = 1  capmod = 2  paramchk = 1  nqsmod = 0  tox = (1.350e-008+mnn_dtox)  xj = 2.5e-007  nch = 1.6e+017  vth0 = (0.1756+mnn_dvth0)  k1 = 0.4094  k2 = 0.06078  k3 = 10  k3b = 0  w0 = 2.5e-006  nlx = 8.009e-007  dvt0 = 2  dvt1 = 0.7678  dvt2 = 0.02202  dvt0w = 0.1323  dvt1w = 1.305e+005  dvt2w = -0.0255  u0 = (0.05102+mnn_du0)  ua = 3.432e-010  ub = 3e-018  uc = 4.872e-011  vsat = 6.626e+004  a0 = 1.585  ags = 0.2022  b0 = 0  b1 = 0  keta = -0.03  a1 = 0  a2 = 1  rdsw = 1300  prwg = 0  prwb = 0  wr = 1  lint = 8.182e-009  wint = 1.5e-007  xl = (0+mnn_dxl)  xw = {0+mnn_dxw}  dwg = 0  dwb = 0  voff = -0.06781  nfactor = 0.3864  cit = 0  cdsc = 0.00024  cdscd = 0  cdscb = 2.721e-005  eta0 = 0.13  etab = -0.038  dsub = 0.56  pclm = 5  pdiblc1 = 0.05447  pdiblc2 = 0.001  pdiblcb = 0  drout = 0.56  pscbe1 = 5.93e+008  pscbe2 = 5e-005  pvag = 0  delta = 0.02  alpha0 = 2e-007  beta0 = 36  alpha1 = 12.5  rsh = 40  hdif = 8e-007  xpart = 0  voffcv = 0  cgdo = 0  cgso = 0  cgbo = 0  cgsl = 0  cgdl = 0  ckappa = 0.6  cf = 0  clc = 1e-007  cle = 0.6  dlc = 0  dwc = 0  noff = 1  acde = 1  moin = 15  js = 2e-007  jsw = 0  ijth = 0.1  cj = 0.0005  mj = 0.5  pb = 1  cjsw = 5e-010  mjsw = 0.33  pbsw = 1  cjswg = 5e-010  mjswg = 0.33  pbswg = 1  ute = -1.47  kt1 = -0.2723  kt1l = -6e-008  kt2 = -0.02747  ua1 = 3.257e-009  ub1 = -5.429e-018  uc1 = -2.403e-011  at = 3.137e+004  prt = 882.5  wl = -6.2e-014  wln = 1  ww = -4.843e-014  wwn = 1  wwl = 5e-020  ll = 4.362e-014  lln = 1  lw = 0  lwn = 1  lwl = 0  noimod = 2  noia = 1e+020  noib = 5e+004  noic = -1.4e-012  em = 4.1e+007  af = 1  ef = 1  kf = 0  lintnoi = 0  tcj = 0  tcjsw = 0  tcjswg = 0  tpb = 0  tpbsw = 0  tpbswg = 0  lvth0 = -0.07003  wvth0 = -0.0138  pvth0 = 0  lk1 = -0.06819  wk1 = 0.025  pk1 = 0  lu0 = -0.001214  wu0 = 0.001445  pu0 = 0  lua = -9.268e-010  wua = 6.999e-010  pua = -3.5e-010  lub = -1e-018  wub = -1.385e-018  pub = 3e-019  luc = -1.119e-010  wuc = -6e-011  puc = 0  la0 = -0.397  wa0 = 0.03451  pa0 = 0  lags = -0.0128  wags = -0.03688  pags = 0  lketa = 0.02  wketa = 0.01373  pketa = -0.025  lalpha0 = 0  walpha0 = 0  palpha0 = 0  lalpha1 = 0  walpha1 = 0  palpha1 = 0  lbeta0 = 0  wbeta0 = 0  pbeta0 = 0  lkt1 = 0.02208  wkt1 = 0  pkt1 = 0  lkt2 = 0.002256  wkt2 = 0  pkt2 = 0  lute = -0.2447  wute = 0.1  pute = 0  lua1 = -1.652e-009  wua1 = 0  pua1 = 0  lub1 = 2.816e-018  wub1 = -3e-019  pub1 = 0  luc1 = 6e-011  wuc1 = 0  puc1 = 0  xti = 3  pvsat = 5000"
    Error: undefined symbol in: "0+[mnn_dxw]"
Ignoring BSIM parameter XL
Ignoring BSIM parameter XW
Ignoring BSIM parameter HDIF
.step v1=1
.step v1=2
.step v1=3
.step v1=4
.step v1=5

Date: Mon Oct 21 11:15:34 2019
Total elapsed time: 10.274 seconds.

tnom = 27
temp = 27
method = trap
totiter = 535
traniter = 0
tranpoints = 0
accept = 0
rejected = 0
matrix size = 6
fillins = 0
solver = Normal
Matrix Compiler1: 200 bytes object code size  0.1/0.1/[0.1]
Matrix Compiler2: off  [0.1]/0.1/0.1

