Circuit: * E:\svn_project\MINIMAL_MASTER_CIRCUIT\2.Development\1.Behavior\a.Analog\Mixed-Signal関係\コンパレータ\tb_COMP_RR5V.asc

Questionable use of curly braces in ".model mnl nmos  level = 49  version = 3.3  tnom = 27  mobmod = 1  capmod = 2  paramchk = 1  nqsmod = 0  tox = {1.350e-008+mnl_dtox}  xj = 2.5e-007  nch = 1.6e+017  vth0 = {0.3903+mnl_dvth0}  k1 = 0.5383  k2 = 0.02992  k3 = 10  k3b = 0  w0 = 2.5e-006  nlx = 5.597e-007  dvt0 = 10  dvt1 = 1.049  dvt2 = 0.02202  dvt0w = 0.1323  dvt1w = 1.305e+005  dvt2w = -0.0255  u0 = {0.05189+mnl_du0}  ua = 4.971e-011  ub = 3.336e-018  uc = 6.065e-011  vsat = 7.434e+004  a0 = 1.509  ags = 0.1713  b0 = 0  b1 = 0  keta = -0.01391  a1 = 0  a2 = 1  rdsw = 1500  prwg = 0  prwb = 0  wr = 1  lint = 8.182e-009  wint = 1.5e-007  xl = {0+mnl_dxl}  xw = {0+mnl_dxw}  dwg = 0  dwb = 0  voff = -0.06781  nfactor = 0.5096  cit = 0  cdsc = 0.00024  cdscd = 0  cdscb = 2.721e-005  eta0 = 0.13  etab = -0.038  dsub = 0.56  pclm = 2.48  pdiblc1 = 0.05447  pdiblc2 = 0.001  pdiblcb = 0  drout = 0.56  pscbe1 = 5.93e+008  pscbe2 = 5e-005  pvag = 0  delta = 0.02  alpha0 = 9e-007  beta0 = 36  alpha1 = 12.5  rsh = 40  hdif = 8e-007  xpart = 0  voffcv = 0  cgdo = 0  cgso = 0  cgbo = 0  cgsl = 0  cgdl = 0  ckappa = 0.6  cf = 0  clc = 1e-007  cle = 0.6  dlc = 0  dwc = 0  noff = 1  acde = 1  moin = 15  js = 2e-007  jsw = 0  ijth = 0.1  cj = 0.0005  mj = 0.5  pb = 1  cjsw = 5e-010  mjsw = 0.33  pbsw = 1  cjswg = 5e-010  mjswg = 0.33  pbswg = 1  ute = -1.47  kt1 = -0.3048  kt1l = -6e-008  kt2 = -0.03092  ua1 = 3.457e-009  ub1 = -5.429e-018  uc1 = -2.403e-011  at = 2.41e+004  prt = 1302  wl = -6.2e-014  wln = 1  ww = -4.843e-014  wwn = 1  wwl = 5e-020  ll = 4.362e-014  lln = 1  lw = 0  lwn = 1  lwl = 0  noimod = 2  noia = 1e+020  noib = 5e+004  noic = -1.4e-012  em = 4.1e+007  af = 1  ef = 1  kf = 0  lintnoi = 0  tcj = 0  tcjsw = 0  tcjswg = 0  tpb = 0  tpbsw = 0  tpbswg = 0  lvth0 = -0.06885  wvth0 = -0.0198  pvth0 = 0  lk1 = -0.0716  wk1 = 0.025  pk1 = 0  lu0 = -0.001214  wu0 = 0  pu0 = 0  lua = -9.268e-010  wua = 2.076e-010  pua = -2e-010  lub = -1e-018  wub = -2.03e-019  pub = 0  luc = -1.119e-010  wuc = 0  puc = 0  la0 = -0.397  wa0 = 0.8992  pa0 = 0  lags = -0.0128  wags = -0.0171  pags = 0.39  lketa = 0.02  wketa = 0.0039  pketa = -0.042  lalpha0 = 0  walpha0 = 0  palpha0 = 0  lalpha1 = 0  walpha1 = 0  palpha1 = 0  lbeta0 = 0  wbeta0 = 0  pbeta0 = 0  lkt1 = 0.02557  wkt1 = -0.02285  pkt1 = 0  lkt2 = -0.003253  wkt2 = -0.004963  pkt2 = 0  lute = -0.07347  wute = 0.101  pute = 0  lua1 = -7.264e-010  wua1 = 1.746e-010  pua1 = 0  lub1 = 5.02e-019  wub1 = -4.696e-019  pub1 = 0  luc1 = 0  wuc1 = 0  puc1 = 0  xti = 3  pvsat = -1000"
    Error: undefined symbol in: "1.350e-008+[mnl_dtox]"
Questionable use of curly braces in ".model mnl nmos  level = 49  version = 3.3  tnom = 27  mobmod = 1  capmod = 2  paramchk = 1  nqsmod = 0  tox = (1.350e-008+mnl_dtox)  xj = 2.5e-007  nch = 1.6e+017  vth0 = {0.3903+mnl_dvth0}  k1 = 0.5383  k2 = 0.02992  k3 = 10  k3b = 0  w0 = 2.5e-006  nlx = 5.597e-007  dvt0 = 10  dvt1 = 1.049  dvt2 = 0.02202  dvt0w = 0.1323  dvt1w = 1.305e+005  dvt2w = -0.0255  u0 = {0.05189+mnl_du0}  ua = 4.971e-011  ub = 3.336e-018  uc = 6.065e-011  vsat = 7.434e+004  a0 = 1.509  ags = 0.1713  b0 = 0  b1 = 0  keta = -0.01391  a1 = 0  a2 = 1  rdsw = 1500  prwg = 0  prwb = 0  wr = 1  lint = 8.182e-009  wint = 1.5e-007  xl = {0+mnl_dxl}  xw = {0+mnl_dxw}  dwg = 0  dwb = 0  voff = -0.06781  nfactor = 0.5096  cit = 0  cdsc = 0.00024  cdscd = 0  cdscb = 2.721e-005  eta0 = 0.13  etab = -0.038  dsub = 0.56  pclm = 2.48  pdiblc1 = 0.05447  pdiblc2 = 0.001  pdiblcb = 0  drout = 0.56  pscbe1 = 5.93e+008  pscbe2 = 5e-005  pvag = 0  delta = 0.02  alpha0 = 9e-007  beta0 = 36  alpha1 = 12.5  rsh = 40  hdif = 8e-007  xpart = 0  voffcv = 0  cgdo = 0  cgso = 0  cgbo = 0  cgsl = 0  cgdl = 0  ckappa = 0.6  cf = 0  clc = 1e-007  cle = 0.6  dlc = 0  dwc = 0  noff = 1  acde = 1  moin = 15  js = 2e-007  jsw = 0  ijth = 0.1  cj = 0.0005  mj = 0.5  pb = 1  cjsw = 5e-010  mjsw = 0.33  pbsw = 1  cjswg = 5e-010  mjswg = 0.33  pbswg = 1  ute = -1.47  kt1 = -0.3048  kt1l = -6e-008  kt2 = -0.03092  ua1 = 3.457e-009  ub1 = -5.429e-018  uc1 = -2.403e-011  at = 2.41e+004  prt = 1302  wl = -6.2e-014  wln = 1  ww = -4.843e-014  wwn = 1  wwl = 5e-020  ll = 4.362e-014  lln = 1  lw = 0  lwn = 1  lwl = 0  noimod = 2  noia = 1e+020  noib = 5e+004  noic = -1.4e-012  em = 4.1e+007  af = 1  ef = 1  kf = 0  lintnoi = 0  tcj = 0  tcjsw = 0  tcjswg = 0  tpb = 0  tpbsw = 0  tpbswg = 0  lvth0 = -0.06885  wvth0 = -0.0198  pvth0 = 0  lk1 = -0.0716  wk1 = 0.025  pk1 = 0  lu0 = -0.001214  wu0 = 0  pu0 = 0  lua = -9.268e-010  wua = 2.076e-010  pua = -2e-010  lub = -1e-018  wub = -2.03e-019  pub = 0  luc = -1.119e-010  wuc = 0  puc = 0  la0 = -0.397  wa0 = 0.8992  pa0 = 0  lags = -0.0128  wags = -0.0171  pags = 0.39  lketa = 0.02  wketa = 0.0039  pketa = -0.042  lalpha0 = 0  walpha0 = 0  palpha0 = 0  lalpha1 = 0  walpha1 = 0  palpha1 = 0  lbeta0 = 0  wbeta0 = 0  pbeta0 = 0  lkt1 = 0.02557  wkt1 = -0.02285  pkt1 = 0  lkt2 = -0.003253  wkt2 = -0.004963  pkt2 = 0  lute = -0.07347  wute = 0.101  pute = 0  lua1 = -7.264e-010  wua1 = 1.746e-010  pua1 = 0  lub1 = 5.02e-019  wub1 = -4.696e-019  pub1 = 0  luc1 = 0  wuc1 = 0  puc1 = 0  xti = 3  pvsat = -1000"
    Error: undefined symbol in: "0.3903+[mnl_dvth0]"
Questionable use of curly braces in ".model mnl nmos  level = 49  version = 3.3  tnom = 27  mobmod = 1  capmod = 2  paramchk = 1  nqsmod = 0  tox = (1.350e-008+mnl_dtox)  xj = 2.5e-007  nch = 1.6e+017  vth0 = (0.3903+mnl_dvth0)  k1 = 0.5383  k2 = 0.02992  k3 = 10  k3b = 0  w0 = 2.5e-006  nlx = 5.597e-007  dvt0 = 10  dvt1 = 1.049  dvt2 = 0.02202  dvt0w = 0.1323  dvt1w = 1.305e+005  dvt2w = -0.0255  u0 = {0.05189+mnl_du0}  ua = 4.971e-011  ub = 3.336e-018  uc = 6.065e-011  vsat = 7.434e+004  a0 = 1.509  ags = 0.1713  b0 = 0  b1 = 0  keta = -0.01391  a1 = 0  a2 = 1  rdsw = 1500  prwg = 0  prwb = 0  wr = 1  lint = 8.182e-009  wint = 1.5e-007  xl = {0+mnl_dxl}  xw = {0+mnl_dxw}  dwg = 0  dwb = 0  voff = -0.06781  nfactor = 0.5096  cit = 0  cdsc = 0.00024  cdscd = 0  cdscb = 2.721e-005  eta0 = 0.13  etab = -0.038  dsub = 0.56  pclm = 2.48  pdiblc1 = 0.05447  pdiblc2 = 0.001  pdiblcb = 0  drout = 0.56  pscbe1 = 5.93e+008  pscbe2 = 5e-005  pvag = 0  delta = 0.02  alpha0 = 9e-007  beta0 = 36  alpha1 = 12.5  rsh = 40  hdif = 8e-007  xpart = 0  voffcv = 0  cgdo = 0  cgso = 0  cgbo = 0  cgsl = 0  cgdl = 0  ckappa = 0.6  cf = 0  clc = 1e-007  cle = 0.6  dlc = 0  dwc = 0  noff = 1  acde = 1  moin = 15  js = 2e-007  jsw = 0  ijth = 0.1  cj = 0.0005  mj = 0.5  pb = 1  cjsw = 5e-010  mjsw = 0.33  pbsw = 1  cjswg = 5e-010  mjswg = 0.33  pbswg = 1  ute = -1.47  kt1 = -0.3048  kt1l = -6e-008  kt2 = -0.03092  ua1 = 3.457e-009  ub1 = -5.429e-018  uc1 = -2.403e-011  at = 2.41e+004  prt = 1302  wl = -6.2e-014  wln = 1  ww = -4.843e-014  wwn = 1  wwl = 5e-020  ll = 4.362e-014  lln = 1  lw = 0  lwn = 1  lwl = 0  noimod = 2  noia = 1e+020  noib = 5e+004  noic = -1.4e-012  em = 4.1e+007  af = 1  ef = 1  kf = 0  lintnoi = 0  tcj = 0  tcjsw = 0  tcjswg = 0  tpb = 0  tpbsw = 0  tpbswg = 0  lvth0 = -0.06885  wvth0 = -0.0198  pvth0 = 0  lk1 = -0.0716  wk1 = 0.025  pk1 = 0  lu0 = -0.001214  wu0 = 0  pu0 = 0  lua = -9.268e-010  wua = 2.076e-010  pua = -2e-010  lub = -1e-018  wub = -2.03e-019  pub = 0  luc = -1.119e-010  wuc = 0  puc = 0  la0 = -0.397  wa0 = 0.8992  pa0 = 0  lags = -0.0128  wags = -0.0171  pags = 0.39  lketa = 0.02  wketa = 0.0039  pketa = -0.042  lalpha0 = 0  walpha0 = 0  palpha0 = 0  lalpha1 = 0  walpha1 = 0  palpha1 = 0  lbeta0 = 0  wbeta0 = 0  pbeta0 = 0  lkt1 = 0.02557  wkt1 = -0.02285  pkt1 = 0  lkt2 = -0.003253  wkt2 = -0.004963  pkt2 = 0  lute = -0.07347  wute = 0.101  pute = 0  lua1 = -7.264e-010  wua1 = 1.746e-010  pua1 = 0  lub1 = 5.02e-019  wub1 = -4.696e-019  pub1 = 0  luc1 = 0  wuc1 = 0  puc1 = 0  xti = 3  pvsat = -1000"
    Error: undefined symbol in: "0.05189+[mnl_du0]"
Questionable use of curly braces in ".model mnl nmos  level = 49  version = 3.3  tnom = 27  mobmod = 1  capmod = 2  paramchk = 1  nqsmod = 0  tox = (1.350e-008+mnl_dtox)  xj = 2.5e-007  nch = 1.6e+017  vth0 = (0.3903+mnl_dvth0)  k1 = 0.5383  k2 = 0.02992  k3 = 10  k3b = 0  w0 = 2.5e-006  nlx = 5.597e-007  dvt0 = 10  dvt1 = 1.049  dvt2 = 0.02202  dvt0w = 0.1323  dvt1w = 1.305e+005  dvt2w = -0.0255  u0 = (0.05189+mnl_du0)  ua = 4.971e-011  ub = 3.336e-018  uc = 6.065e-011  vsat = 7.434e+004  a0 = 1.509  ags = 0.1713  b0 = 0  b1 = 0  keta = -0.01391  a1 = 0  a2 = 1  rdsw = 1500  prwg = 0  prwb = 0  wr = 1  lint = 8.182e-009  wint = 1.5e-007  xl = {0+mnl_dxl}  xw = {0+mnl_dxw}  dwg = 0  dwb = 0  voff = -0.06781  nfactor = 0.5096  cit = 0  cdsc = 0.00024  cdscd = 0  cdscb = 2.721e-005  eta0 = 0.13  etab = -0.038  dsub = 0.56  pclm = 2.48  pdiblc1 = 0.05447  pdiblc2 = 0.001  pdiblcb = 0  drout = 0.56  pscbe1 = 5.93e+008  pscbe2 = 5e-005  pvag = 0  delta = 0.02  alpha0 = 9e-007  beta0 = 36  alpha1 = 12.5  rsh = 40  hdif = 8e-007  xpart = 0  voffcv = 0  cgdo = 0  cgso = 0  cgbo = 0  cgsl = 0  cgdl = 0  ckappa = 0.6  cf = 0  clc = 1e-007  cle = 0.6  dlc = 0  dwc = 0  noff = 1  acde = 1  moin = 15  js = 2e-007  jsw = 0  ijth = 0.1  cj = 0.0005  mj = 0.5  pb = 1  cjsw = 5e-010  mjsw = 0.33  pbsw = 1  cjswg = 5e-010  mjswg = 0.33  pbswg = 1  ute = -1.47  kt1 = -0.3048  kt1l = -6e-008  kt2 = -0.03092  ua1 = 3.457e-009  ub1 = -5.429e-018  uc1 = -2.403e-011  at = 2.41e+004  prt = 1302  wl = -6.2e-014  wln = 1  ww = -4.843e-014  wwn = 1  wwl = 5e-020  ll = 4.362e-014  lln = 1  lw = 0  lwn = 1  lwl = 0  noimod = 2  noia = 1e+020  noib = 5e+004  noic = -1.4e-012  em = 4.1e+007  af = 1  ef = 1  kf = 0  lintnoi = 0  tcj = 0  tcjsw = 0  tcjswg = 0  tpb = 0  tpbsw = 0  tpbswg = 0  lvth0 = -0.06885  wvth0 = -0.0198  pvth0 = 0  lk1 = -0.0716  wk1 = 0.025  pk1 = 0  lu0 = -0.001214  wu0 = 0  pu0 = 0  lua = -9.268e-010  wua = 2.076e-010  pua = -2e-010  lub = -1e-018  wub = -2.03e-019  pub = 0  luc = -1.119e-010  wuc = 0  puc = 0  la0 = -0.397  wa0 = 0.8992  pa0 = 0  lags = -0.0128  wags = -0.0171  pags = 0.39  lketa = 0.02  wketa = 0.0039  pketa = -0.042  lalpha0 = 0  walpha0 = 0  palpha0 = 0  lalpha1 = 0  walpha1 = 0  palpha1 = 0  lbeta0 = 0  wbeta0 = 0  pbeta0 = 0  lkt1 = 0.02557  wkt1 = -0.02285  pkt1 = 0  lkt2 = -0.003253  wkt2 = -0.004963  pkt2 = 0  lute = -0.07347  wute = 0.101  pute = 0  lua1 = -7.264e-010  wua1 = 1.746e-010  pua1 = 0  lub1 = 5.02e-019  wub1 = -4.696e-019  pub1 = 0  luc1 = 0  wuc1 = 0  puc1 = 0  xti = 3  pvsat = -1000"
    Error: undefined symbol in: "0+[mnl_dxl]"
Questionable use of curly braces in ".model mnl nmos  level = 49  version = 3.3  tnom = 27  mobmod = 1  capmod = 2  paramchk = 1  nqsmod = 0  tox = (1.350e-008+mnl_dtox)  xj = 2.5e-007  nch = 1.6e+017  vth0 = (0.3903+mnl_dvth0)  k1 = 0.5383  k2 = 0.02992  k3 = 10  k3b = 0  w0 = 2.5e-006  nlx = 5.597e-007  dvt0 = 10  dvt1 = 1.049  dvt2 = 0.02202  dvt0w = 0.1323  dvt1w = 1.305e+005  dvt2w = -0.0255  u0 = (0.05189+mnl_du0)  ua = 4.971e-011  ub = 3.336e-018  uc = 6.065e-011  vsat = 7.434e+004  a0 = 1.509  ags = 0.1713  b0 = 0  b1 = 0  keta = -0.01391  a1 = 0  a2 = 1  rdsw = 1500  prwg = 0  prwb = 0  wr = 1  lint = 8.182e-009  wint = 1.5e-007  xl = (0+mnl_dxl)  xw = {0+mnl_dxw}  dwg = 0  dwb = 0  voff = -0.06781  nfactor = 0.5096  cit = 0  cdsc = 0.00024  cdscd = 0  cdscb = 2.721e-005  eta0 = 0.13  etab = -0.038  dsub = 0.56  pclm = 2.48  pdiblc1 = 0.05447  pdiblc2 = 0.001  pdiblcb = 0  drout = 0.56  pscbe1 = 5.93e+008  pscbe2 = 5e-005  pvag = 0  delta = 0.02  alpha0 = 9e-007  beta0 = 36  alpha1 = 12.5  rsh = 40  hdif = 8e-007  xpart = 0  voffcv = 0  cgdo = 0  cgso = 0  cgbo = 0  cgsl = 0  cgdl = 0  ckappa = 0.6  cf = 0  clc = 1e-007  cle = 0.6  dlc = 0  dwc = 0  noff = 1  acde = 1  moin = 15  js = 2e-007  jsw = 0  ijth = 0.1  cj = 0.0005  mj = 0.5  pb = 1  cjsw = 5e-010  mjsw = 0.33  pbsw = 1  cjswg = 5e-010  mjswg = 0.33  pbswg = 1  ute = -1.47  kt1 = -0.3048  kt1l = -6e-008  kt2 = -0.03092  ua1 = 3.457e-009  ub1 = -5.429e-018  uc1 = -2.403e-011  at = 2.41e+004  prt = 1302  wl = -6.2e-014  wln = 1  ww = -4.843e-014  wwn = 1  wwl = 5e-020  ll = 4.362e-014  lln = 1  lw = 0  lwn = 1  lwl = 0  noimod = 2  noia = 1e+020  noib = 5e+004  noic = -1.4e-012  em = 4.1e+007  af = 1  ef = 1  kf = 0  lintnoi = 0  tcj = 0  tcjsw = 0  tcjswg = 0  tpb = 0  tpbsw = 0  tpbswg = 0  lvth0 = -0.06885  wvth0 = -0.0198  pvth0 = 0  lk1 = -0.0716  wk1 = 0.025  pk1 = 0  lu0 = -0.001214  wu0 = 0  pu0 = 0  lua = -9.268e-010  wua = 2.076e-010  pua = -2e-010  lub = -1e-018  wub = -2.03e-019  pub = 0  luc = -1.119e-010  wuc = 0  puc = 0  la0 = -0.397  wa0 = 0.8992  pa0 = 0  lags = -0.0128  wags = -0.0171  pags = 0.39  lketa = 0.02  wketa = 0.0039  pketa = -0.042  lalpha0 = 0  walpha0 = 0  palpha0 = 0  lalpha1 = 0  walpha1 = 0  palpha1 = 0  lbeta0 = 0  wbeta0 = 0  pbeta0 = 0  lkt1 = 0.02557  wkt1 = -0.02285  pkt1 = 0  lkt2 = -0.003253  wkt2 = -0.004963  pkt2 = 0  lute = -0.07347  wute = 0.101  pute = 0  lua1 = -7.264e-010  wua1 = 1.746e-010  pua1 = 0  lub1 = 5.02e-019  wub1 = -4.696e-019  pub1 = 0  luc1 = 0  wuc1 = 0  puc1 = 0  xti = 3  pvsat = -1000"
    Error: undefined symbol in: "0+[mnl_dxw]"
Questionable use of curly braces in ".model mpl pmos  level = 49  version = 3.3  tnom = 27  mobmod = 1  capmod = 2  paramchk = 1  nqsmod = 0  tox = {1.350e-008+mpl_dtox}  xj = 2e-007  nch = 8.1e+017  vth0 = {-0.6046+mpl_dvth0}  k1 = 0.6908  k2 = 0  k3 = 1.8  k3b = -7.097  w0 = 2.5e-006  nlx = 5.399e-007  dvt0 = 0.1482  dvt1 = 0.01223  dvt2 = -0.1752  dvt0w = 0  dvt1w = 6.557e-007  dvt2w = -0.032  u0 = {0.02288+mpl_du0}  ua = 2.759e-009  ub = 2.479e-019  uc = -4.783e-011  vsat = 8.388e+004  a0 = 0.35  ags = 0.01  b0 = 0  b1 = 0  keta = 0.00369  a1 = 0  a2 = 1  rdsw = 1686  prwg = 0  prwb = 0  wr = 1  lint = -3.458e-008  wint = 3.19e-008  xl = {0+mpl_dxl}  xw = {0+mpl_dxw}  dwg = 0  dwb = 0  voff = -0.132  nfactor = 0.7561  cit = 0  cdsc = 4e-005  cdscd = 0  cdscb = 0.0001  eta0 = 4.89  etab = -0.07  dsub = 0.56  pclm = 1  pdiblc1 = 0.39  pdiblc2 = 0.0007646  pdiblcb = 0  drout = 0.56  pscbe1 = 1e+009  pscbe2 = 1e-005  pvag = 0  delta = 0.002324  alpha0 = 1.387e-005  beta0 = 30.84  alpha1 = 0.4071  rsh = 90  hdif = 8e-007  xpart = 0  voffcv = 0  cgdo = 0  cgso = 0  cgbo = 0  cgsl = 0  cgdl = 0  ckappa = 0.6  cf = 0  clc = 1e-007  cle = 0.6  dlc = 0  dwc = 0  noff = 1  acde = 1  moin = 15  js = 2.5e-007  jsw = 0  ijth = 0.1  cj = 0.0005  mj = 0.5  pb = 1  cjsw = 5e-010  mjsw = 0.33  pbsw = 1  cjswg = 5e-010  mjswg = 0.33  pbswg = 1  ute = -1.095  kt1 = -0.4864  kt1l = 1.815e-008  kt2 = -0.02468  ua1 = 4.137e-009  ub1 = -7.718e-018  uc1 = -7.115e-011  at = 3.07e+004  prt = 4048  wl = 0  wln = 1  ww = -4.2e-014  wwn = 1  wwl = 3.97e-020  ll = -4.702e-014  lln = 1  lw = 0  lwn = 1  lwl = 0  noimod = 2  noia = 1e+020  noib = 5e+004  noic = -1.4e-012  em = 4.1e+007  af = 1  ef = 1  kf = 0  lintnoi = 0  tcj = 0  tcjsw = 0  tcjswg = 0  tpb = 0  tpbsw = 0  tpbswg = 0  lvth0 = 0.1723  wvth0 = 0.02339  pvth0 = -0.03398  lk1 = -0.0122  wk1 = -0.03267  pk1 = -0.03762  lu0 = 0.003  wu0 = -0.000386  pu0 = 0  lua = -1.492e-009  wua = 1.964e-009  pua = -5.358e-010  lub = 8.115e-019  wub = -1.757e-018  pub = -1.89e-019  luc = 0  wuc = -1.2e-010  puc = 0  la0 = 0  wa0 = 0.223  pa0 = -0.6  lags = 0  wags = 0  pags = 0  lketa = -0.01227  wketa = 0.00267  pketa = -0.01  lalpha0 = 3.662e-007  walpha0 = 8.166e-007  palpha0 = 1.516e-007  lalpha1 = -13.9  walpha1 = 0  palpha1 = 0  lbeta0 = 1.494  wbeta0 = 1  pbeta0 = 1.722  lkt1 = -0.07908  wkt1 = 0.04072  pkt1 = -0.01972  lkt2 = -0.03774  wkt2 = -0.03177  pkt2 = 0.03139  lute = 0.1731  wute = 0  pute = 0.2222  lua1 = -2.139e-009  wua1 = 0  pua1 = 1.338e-009  lub1 = -2.608e-019  wub1 = 0  pub1 = -1.908e-018  luc1 = -1.7e-010  wuc1 = 0  puc1 = 0  lvoff = 0.1  wvoff = -0.05603  xti = 3  pvsat = -1.2e+004"
    Error: undefined symbol in: "1.350e-008+[mpl_dtox]"
Questionable use of curly braces in ".model mpl pmos  level = 49  version = 3.3  tnom = 27  mobmod = 1  capmod = 2  paramchk = 1  nqsmod = 0  tox = (1.350e-008+mpl_dtox)  xj = 2e-007  nch = 8.1e+017  vth0 = {-0.6046+mpl_dvth0}  k1 = 0.6908  k2 = 0  k3 = 1.8  k3b = -7.097  w0 = 2.5e-006  nlx = 5.399e-007  dvt0 = 0.1482  dvt1 = 0.01223  dvt2 = -0.1752  dvt0w = 0  dvt1w = 6.557e-007  dvt2w = -0.032  u0 = {0.02288+mpl_du0}  ua = 2.759e-009  ub = 2.479e-019  uc = -4.783e-011  vsat = 8.388e+004  a0 = 0.35  ags = 0.01  b0 = 0  b1 = 0  keta = 0.00369  a1 = 0  a2 = 1  rdsw = 1686  prwg = 0  prwb = 0  wr = 1  lint = -3.458e-008  wint = 3.19e-008  xl = {0+mpl_dxl}  xw = {0+mpl_dxw}  dwg = 0  dwb = 0  voff = -0.132  nfactor = 0.7561  cit = 0  cdsc = 4e-005  cdscd = 0  cdscb = 0.0001  eta0 = 4.89  etab = -0.07  dsub = 0.56  pclm = 1  pdiblc1 = 0.39  pdiblc2 = 0.0007646  pdiblcb = 0  drout = 0.56  pscbe1 = 1e+009  pscbe2 = 1e-005  pvag = 0  delta = 0.002324  alpha0 = 1.387e-005  beta0 = 30.84  alpha1 = 0.4071  rsh = 90  hdif = 8e-007  xpart = 0  voffcv = 0  cgdo = 0  cgso = 0  cgbo = 0  cgsl = 0  cgdl = 0  ckappa = 0.6  cf = 0  clc = 1e-007  cle = 0.6  dlc = 0  dwc = 0  noff = 1  acde = 1  moin = 15  js = 2.5e-007  jsw = 0  ijth = 0.1  cj = 0.0005  mj = 0.5  pb = 1  cjsw = 5e-010  mjsw = 0.33  pbsw = 1  cjswg = 5e-010  mjswg = 0.33  pbswg = 1  ute = -1.095  kt1 = -0.4864  kt1l = 1.815e-008  kt2 = -0.02468  ua1 = 4.137e-009  ub1 = -7.718e-018  uc1 = -7.115e-011  at = 3.07e+004  prt = 4048  wl = 0  wln = 1  ww = -4.2e-014  wwn = 1  wwl = 3.97e-020  ll = -4.702e-014  lln = 1  lw = 0  lwn = 1  lwl = 0  noimod = 2  noia = 1e+020  noib = 5e+004  noic = -1.4e-012  em = 4.1e+007  af = 1  ef = 1  kf = 0  lintnoi = 0  tcj = 0  tcjsw = 0  tcjswg = 0  tpb = 0  tpbsw = 0  tpbswg = 0  lvth0 = 0.1723  wvth0 = 0.02339  pvth0 = -0.03398  lk1 = -0.0122  wk1 = -0.03267  pk1 = -0.03762  lu0 = 0.003  wu0 = -0.000386  pu0 = 0  lua = -1.492e-009  wua = 1.964e-009  pua = -5.358e-010  lub = 8.115e-019  wub = -1.757e-018  pub = -1.89e-019  luc = 0  wuc = -1.2e-010  puc = 0  la0 = 0  wa0 = 0.223  pa0 = -0.6  lags = 0  wags = 0  pags = 0  lketa = -0.01227  wketa = 0.00267  pketa = -0.01  lalpha0 = 3.662e-007  walpha0 = 8.166e-007  palpha0 = 1.516e-007  lalpha1 = -13.9  walpha1 = 0  palpha1 = 0  lbeta0 = 1.494  wbeta0 = 1  pbeta0 = 1.722  lkt1 = -0.07908  wkt1 = 0.04072  pkt1 = -0.01972  lkt2 = -0.03774  wkt2 = -0.03177  pkt2 = 0.03139  lute = 0.1731  wute = 0  pute = 0.2222  lua1 = -2.139e-009  wua1 = 0  pua1 = 1.338e-009  lub1 = -2.608e-019  wub1 = 0  pub1 = -1.908e-018  luc1 = -1.7e-010  wuc1 = 0  puc1 = 0  lvoff = 0.1  wvoff = -0.05603  xti = 3  pvsat = -1.2e+004"
    Error: undefined symbol in: "-0.6046+[mpl_dvth0]"
Questionable use of curly braces in ".model mpl pmos  level = 49  version = 3.3  tnom = 27  mobmod = 1  capmod = 2  paramchk = 1  nqsmod = 0  tox = (1.350e-008+mpl_dtox)  xj = 2e-007  nch = 8.1e+017  vth0 = (-0.6046+mpl_dvth0)  k1 = 0.6908  k2 = 0  k3 = 1.8  k3b = -7.097  w0 = 2.5e-006  nlx = 5.399e-007  dvt0 = 0.1482  dvt1 = 0.01223  dvt2 = -0.1752  dvt0w = 0  dvt1w = 6.557e-007  dvt2w = -0.032  u0 = {0.02288+mpl_du0}  ua = 2.759e-009  ub = 2.479e-019  uc = -4.783e-011  vsat = 8.388e+004  a0 = 0.35  ags = 0.01  b0 = 0  b1 = 0  keta = 0.00369  a1 = 0  a2 = 1  rdsw = 1686  prwg = 0  prwb = 0  wr = 1  lint = -3.458e-008  wint = 3.19e-008  xl = {0+mpl_dxl}  xw = {0+mpl_dxw}  dwg = 0  dwb = 0  voff = -0.132  nfactor = 0.7561  cit = 0  cdsc = 4e-005  cdscd = 0  cdscb = 0.0001  eta0 = 4.89  etab = -0.07  dsub = 0.56  pclm = 1  pdiblc1 = 0.39  pdiblc2 = 0.0007646  pdiblcb = 0  drout = 0.56  pscbe1 = 1e+009  pscbe2 = 1e-005  pvag = 0  delta = 0.002324  alpha0 = 1.387e-005  beta0 = 30.84  alpha1 = 0.4071  rsh = 90  hdif = 8e-007  xpart = 0  voffcv = 0  cgdo = 0  cgso = 0  cgbo = 0  cgsl = 0  cgdl = 0  ckappa = 0.6  cf = 0  clc = 1e-007  cle = 0.6  dlc = 0  dwc = 0  noff = 1  acde = 1  moin = 15  js = 2.5e-007  jsw = 0  ijth = 0.1  cj = 0.0005  mj = 0.5  pb = 1  cjsw = 5e-010  mjsw = 0.33  pbsw = 1  cjswg = 5e-010  mjswg = 0.33  pbswg = 1  ute = -1.095  kt1 = -0.4864  kt1l = 1.815e-008  kt2 = -0.02468  ua1 = 4.137e-009  ub1 = -7.718e-018  uc1 = -7.115e-011  at = 3.07e+004  prt = 4048  wl = 0  wln = 1  ww = -4.2e-014  wwn = 1  wwl = 3.97e-020  ll = -4.702e-014  lln = 1  lw = 0  lwn = 1  lwl = 0  noimod = 2  noia = 1e+020  noib = 5e+004  noic = -1.4e-012  em = 4.1e+007  af = 1  ef = 1  kf = 0  lintnoi = 0  tcj = 0  tcjsw = 0  tcjswg = 0  tpb = 0  tpbsw = 0  tpbswg = 0  lvth0 = 0.1723  wvth0 = 0.02339  pvth0 = -0.03398  lk1 = -0.0122  wk1 = -0.03267  pk1 = -0.03762  lu0 = 0.003  wu0 = -0.000386  pu0 = 0  lua = -1.492e-009  wua = 1.964e-009  pua = -5.358e-010  lub = 8.115e-019  wub = -1.757e-018  pub = -1.89e-019  luc = 0  wuc = -1.2e-010  puc = 0  la0 = 0  wa0 = 0.223  pa0 = -0.6  lags = 0  wags = 0  pags = 0  lketa = -0.01227  wketa = 0.00267  pketa = -0.01  lalpha0 = 3.662e-007  walpha0 = 8.166e-007  palpha0 = 1.516e-007  lalpha1 = -13.9  walpha1 = 0  palpha1 = 0  lbeta0 = 1.494  wbeta0 = 1  pbeta0 = 1.722  lkt1 = -0.07908  wkt1 = 0.04072  pkt1 = -0.01972  lkt2 = -0.03774  wkt2 = -0.03177  pkt2 = 0.03139  lute = 0.1731  wute = 0  pute = 0.2222  lua1 = -2.139e-009  wua1 = 0  pua1 = 1.338e-009  lub1 = -2.608e-019  wub1 = 0  pub1 = -1.908e-018  luc1 = -1.7e-010  wuc1 = 0  puc1 = 0  lvoff = 0.1  wvoff = -0.05603  xti = 3  pvsat = -1.2e+004"
    Error: undefined symbol in: "0.02288+[mpl_du0]"
Questionable use of curly braces in ".model mpl pmos  level = 49  version = 3.3  tnom = 27  mobmod = 1  capmod = 2  paramchk = 1  nqsmod = 0  tox = (1.350e-008+mpl_dtox)  xj = 2e-007  nch = 8.1e+017  vth0 = (-0.6046+mpl_dvth0)  k1 = 0.6908  k2 = 0  k3 = 1.8  k3b = -7.097  w0 = 2.5e-006  nlx = 5.399e-007  dvt0 = 0.1482  dvt1 = 0.01223  dvt2 = -0.1752  dvt0w = 0  dvt1w = 6.557e-007  dvt2w = -0.032  u0 = (0.02288+mpl_du0)  ua = 2.759e-009  ub = 2.479e-019  uc = -4.783e-011  vsat = 8.388e+004  a0 = 0.35  ags = 0.01  b0 = 0  b1 = 0  keta = 0.00369  a1 = 0  a2 = 1  rdsw = 1686  prwg = 0  prwb = 0  wr = 1  lint = -3.458e-008  wint = 3.19e-008  xl = {0+mpl_dxl}  xw = {0+mpl_dxw}  dwg = 0  dwb = 0  voff = -0.132  nfactor = 0.7561  cit = 0  cdsc = 4e-005  cdscd = 0  cdscb = 0.0001  eta0 = 4.89  etab = -0.07  dsub = 0.56  pclm = 1  pdiblc1 = 0.39  pdiblc2 = 0.0007646  pdiblcb = 0  drout = 0.56  pscbe1 = 1e+009  pscbe2 = 1e-005  pvag = 0  delta = 0.002324  alpha0 = 1.387e-005  beta0 = 30.84  alpha1 = 0.4071  rsh = 90  hdif = 8e-007  xpart = 0  voffcv = 0  cgdo = 0  cgso = 0  cgbo = 0  cgsl = 0  cgdl = 0  ckappa = 0.6  cf = 0  clc = 1e-007  cle = 0.6  dlc = 0  dwc = 0  noff = 1  acde = 1  moin = 15  js = 2.5e-007  jsw = 0  ijth = 0.1  cj = 0.0005  mj = 0.5  pb = 1  cjsw = 5e-010  mjsw = 0.33  pbsw = 1  cjswg = 5e-010  mjswg = 0.33  pbswg = 1  ute = -1.095  kt1 = -0.4864  kt1l = 1.815e-008  kt2 = -0.02468  ua1 = 4.137e-009  ub1 = -7.718e-018  uc1 = -7.115e-011  at = 3.07e+004  prt = 4048  wl = 0  wln = 1  ww = -4.2e-014  wwn = 1  wwl = 3.97e-020  ll = -4.702e-014  lln = 1  lw = 0  lwn = 1  lwl = 0  noimod = 2  noia = 1e+020  noib = 5e+004  noic = -1.4e-012  em = 4.1e+007  af = 1  ef = 1  kf = 0  lintnoi = 0  tcj = 0  tcjsw = 0  tcjswg = 0  tpb = 0  tpbsw = 0  tpbswg = 0  lvth0 = 0.1723  wvth0 = 0.02339  pvth0 = -0.03398  lk1 = -0.0122  wk1 = -0.03267  pk1 = -0.03762  lu0 = 0.003  wu0 = -0.000386  pu0 = 0  lua = -1.492e-009  wua = 1.964e-009  pua = -5.358e-010  lub = 8.115e-019  wub = -1.757e-018  pub = -1.89e-019  luc = 0  wuc = -1.2e-010  puc = 0  la0 = 0  wa0 = 0.223  pa0 = -0.6  lags = 0  wags = 0  pags = 0  lketa = -0.01227  wketa = 0.00267  pketa = -0.01  lalpha0 = 3.662e-007  walpha0 = 8.166e-007  palpha0 = 1.516e-007  lalpha1 = -13.9  walpha1 = 0  palpha1 = 0  lbeta0 = 1.494  wbeta0 = 1  pbeta0 = 1.722  lkt1 = -0.07908  wkt1 = 0.04072  pkt1 = -0.01972  lkt2 = -0.03774  wkt2 = -0.03177  pkt2 = 0.03139  lute = 0.1731  wute = 0  pute = 0.2222  lua1 = -2.139e-009  wua1 = 0  pua1 = 1.338e-009  lub1 = -2.608e-019  wub1 = 0  pub1 = -1.908e-018  luc1 = -1.7e-010  wuc1 = 0  puc1 = 0  lvoff = 0.1  wvoff = -0.05603  xti = 3  pvsat = -1.2e+004"
    Error: undefined symbol in: "0+[mpl_dxl]"
Questionable use of curly braces in ".model mpl pmos  level = 49  version = 3.3  tnom = 27  mobmod = 1  capmod = 2  paramchk = 1  nqsmod = 0  tox = (1.350e-008+mpl_dtox)  xj = 2e-007  nch = 8.1e+017  vth0 = (-0.6046+mpl_dvth0)  k1 = 0.6908  k2 = 0  k3 = 1.8  k3b = -7.097  w0 = 2.5e-006  nlx = 5.399e-007  dvt0 = 0.1482  dvt1 = 0.01223  dvt2 = -0.1752  dvt0w = 0  dvt1w = 6.557e-007  dvt2w = -0.032  u0 = (0.02288+mpl_du0)  ua = 2.759e-009  ub = 2.479e-019  uc = -4.783e-011  vsat = 8.388e+004  a0 = 0.35  ags = 0.01  b0 = 0  b1 = 0  keta = 0.00369  a1 = 0  a2 = 1  rdsw = 1686  prwg = 0  prwb = 0  wr = 1  lint = -3.458e-008  wint = 3.19e-008  xl = (0+mpl_dxl)  xw = {0+mpl_dxw}  dwg = 0  dwb = 0  voff = -0.132  nfactor = 0.7561  cit = 0  cdsc = 4e-005  cdscd = 0  cdscb = 0.0001  eta0 = 4.89  etab = -0.07  dsub = 0.56  pclm = 1  pdiblc1 = 0.39  pdiblc2 = 0.0007646  pdiblcb = 0  drout = 0.56  pscbe1 = 1e+009  pscbe2 = 1e-005  pvag = 0  delta = 0.002324  alpha0 = 1.387e-005  beta0 = 30.84  alpha1 = 0.4071  rsh = 90  hdif = 8e-007  xpart = 0  voffcv = 0  cgdo = 0  cgso = 0  cgbo = 0  cgsl = 0  cgdl = 0  ckappa = 0.6  cf = 0  clc = 1e-007  cle = 0.6  dlc = 0  dwc = 0  noff = 1  acde = 1  moin = 15  js = 2.5e-007  jsw = 0  ijth = 0.1  cj = 0.0005  mj = 0.5  pb = 1  cjsw = 5e-010  mjsw = 0.33  pbsw = 1  cjswg = 5e-010  mjswg = 0.33  pbswg = 1  ute = -1.095  kt1 = -0.4864  kt1l = 1.815e-008  kt2 = -0.02468  ua1 = 4.137e-009  ub1 = -7.718e-018  uc1 = -7.115e-011  at = 3.07e+004  prt = 4048  wl = 0  wln = 1  ww = -4.2e-014  wwn = 1  wwl = 3.97e-020  ll = -4.702e-014  lln = 1  lw = 0  lwn = 1  lwl = 0  noimod = 2  noia = 1e+020  noib = 5e+004  noic = -1.4e-012  em = 4.1e+007  af = 1  ef = 1  kf = 0  lintnoi = 0  tcj = 0  tcjsw = 0  tcjswg = 0  tpb = 0  tpbsw = 0  tpbswg = 0  lvth0 = 0.1723  wvth0 = 0.02339  pvth0 = -0.03398  lk1 = -0.0122  wk1 = -0.03267  pk1 = -0.03762  lu0 = 0.003  wu0 = -0.000386  pu0 = 0  lua = -1.492e-009  wua = 1.964e-009  pua = -5.358e-010  lub = 8.115e-019  wub = -1.757e-018  pub = -1.89e-019  luc = 0  wuc = -1.2e-010  puc = 0  la0 = 0  wa0 = 0.223  pa0 = -0.6  lags = 0  wags = 0  pags = 0  lketa = -0.01227  wketa = 0.00267  pketa = -0.01  lalpha0 = 3.662e-007  walpha0 = 8.166e-007  palpha0 = 1.516e-007  lalpha1 = -13.9  walpha1 = 0  palpha1 = 0  lbeta0 = 1.494  wbeta0 = 1  pbeta0 = 1.722  lkt1 = -0.07908  wkt1 = 0.04072  pkt1 = -0.01972  lkt2 = -0.03774  wkt2 = -0.03177  pkt2 = 0.03139  lute = 0.1731  wute = 0  pute = 0.2222  lua1 = -2.139e-009  wua1 = 0  pua1 = 1.338e-009  lub1 = -2.608e-019  wub1 = 0  pub1 = -1.908e-018  luc1 = -1.7e-010  wuc1 = 0  puc1 = 0  lvoff = 0.1  wvoff = -0.05603  xti = 3  pvsat = -1.2e+004"
    Error: undefined symbol in: "0+[mpl_dxw]"
Questionable use of curly braces in ".model mpl pmos  level = 49  version = 3.3  tnom = 27  mobmod = 1  capmod = 2  paramchk = 1  nqsmod = 0  tox = {1.350e-008+mpl_dtox}  xj = 2e-007  nch = 8.1e+017  vth0 = {-0.6046+mpl_dvth0}  k1 = 0.6908  k2 = 0  k3 = 1.8  k3b = -7.097  w0 = 2.5e-006  nlx = 5.399e-007  dvt0 = 0.1482  dvt1 = 0.01223  dvt2 = -0.1752  dvt0w = 0  dvt1w = 6.557e-007  dvt2w = -0.032  u0 = {0.02288+mpl_du0}  ua = 2.759e-009  ub = 2.479e-019  uc = -4.783e-011  vsat = 8.388e+004  a0 = 0.35  ags = 0.01  b0 = 0  b1 = 0  keta = 0.00369  a1 = 0  a2 = 1  rdsw = 1686  prwg = 0  prwb = 0  wr = 1  lint = -3.458e-008  wint = 3.19e-008  xl = {0+mpl_dxl}  xw = {0+mpl_dxw}  dwg = 0  dwb = 0  voff = -0.132  nfactor = 0.7561  cit = 0  cdsc = 4e-005  cdscd = 0  cdscb = 0.0001  eta0 = 4.89  etab = -0.07  dsub = 0.56  pclm = 1  pdiblc1 = 0.39  pdiblc2 = 0.0007646  pdiblcb = 0  drout = 0.56  pscbe1 = 1e+009  pscbe2 = 1e-005  pvag = 0  delta = 0.002324  alpha0 = 1.387e-005  beta0 = 30.84  alpha1 = 0.4071  rsh = 90  hdif = 8e-007  xpart = 0  voffcv = 0  cgdo = 0  cgso = 0  cgbo = 0  cgsl = 0  cgdl = 0  ckappa = 0.6  cf = 0  clc = 1e-007  cle = 0.6  dlc = 0  dwc = 0  noff = 1  acde = 1  moin = 15  js = 2.5e-007  jsw = 0  ijth = 0.1  cj = 0.0005  mj = 0.5  pb = 1  cjsw = 5e-010  mjsw = 0.33  pbsw = 1  cjswg = 5e-010  mjswg = 0.33  pbswg = 1  ute = -1.095  kt1 = -0.4864  kt1l = 1.815e-008  kt2 = -0.02468  ua1 = 4.137e-009  ub1 = -7.718e-018  uc1 = -7.115e-011  at = 3.07e+004  prt = 4048  wl = 0  wln = 1  ww = -4.2e-014  wwn = 1  wwl = 3.97e-020  ll = -4.702e-014  lln = 1  lw = 0  lwn = 1  lwl = 0  noimod = 2  noia = 1e+020  noib = 5e+004  noic = -1.4e-012  em = 4.1e+007  af = 1  ef = 1  kf = 0  lintnoi = 0  tcj = 0  tcjsw = 0  tcjswg = 0  tpb = 0  tpbsw = 0  tpbswg = 0  lvth0 = 0.1723  wvth0 = 0.02339  pvth0 = -0.03398  lk1 = -0.0122  wk1 = -0.03267  pk1 = -0.03762  lu0 = 0.003  wu0 = -0.000386  pu0 = 0  lua = -1.492e-009  wua = 1.964e-009  pua = -5.358e-010  lub = 8.115e-019  wub = -1.757e-018  pub = -1.89e-019  luc = 0  wuc = -1.2e-010  puc = 0  la0 = 0  wa0 = 0.223  pa0 = -0.6  lags = 0  wags = 0  pags = 0  lketa = -0.01227  wketa = 0.00267  pketa = -0.01  lalpha0 = 3.662e-007  walpha0 = 8.166e-007  palpha0 = 1.516e-007  lalpha1 = -13.9  walpha1 = 0  palpha1 = 0  lbeta0 = 1.494  wbeta0 = 1  pbeta0 = 1.722  lkt1 = -0.07908  wkt1 = 0.04072  pkt1 = -0.01972  lkt2 = -0.03774  wkt2 = -0.03177  pkt2 = 0.03139  lute = 0.1731  wute = 0  pute = 0.2222  lua1 = -2.139e-009  wua1 = 0  pua1 = 1.338e-009  lub1 = -2.608e-019  wub1 = 0  pub1 = -1.908e-018  luc1 = -1.7e-010  wuc1 = 0  puc1 = 0  lvoff = 0.1  wvoff = -0.05603  xti = 3  pvsat = -1.2e+004"
    Error: undefined symbol in: "1.350e-008+[mpl_dtox]"
Questionable use of curly braces in ".model mpl pmos  level = 49  version = 3.3  tnom = 27  mobmod = 1  capmod = 2  paramchk = 1  nqsmod = 0  tox = (1.350e-008+mpl_dtox)  xj = 2e-007  nch = 8.1e+017  vth0 = {-0.6046+mpl_dvth0}  k1 = 0.6908  k2 = 0  k3 = 1.8  k3b = -7.097  w0 = 2.5e-006  nlx = 5.399e-007  dvt0 = 0.1482  dvt1 = 0.01223  dvt2 = -0.1752  dvt0w = 0  dvt1w = 6.557e-007  dvt2w = -0.032  u0 = {0.02288+mpl_du0}  ua = 2.759e-009  ub = 2.479e-019  uc = -4.783e-011  vsat = 8.388e+004  a0 = 0.35  ags = 0.01  b0 = 0  b1 = 0  keta = 0.00369  a1 = 0  a2 = 1  rdsw = 1686  prwg = 0  prwb = 0  wr = 1  lint = -3.458e-008  wint = 3.19e-008  xl = {0+mpl_dxl}  xw = {0+mpl_dxw}  dwg = 0  dwb = 0  voff = -0.132  nfactor = 0.7561  cit = 0  cdsc = 4e-005  cdscd = 0  cdscb = 0.0001  eta0 = 4.89  etab = -0.07  dsub = 0.56  pclm = 1  pdiblc1 = 0.39  pdiblc2 = 0.0007646  pdiblcb = 0  drout = 0.56  pscbe1 = 1e+009  pscbe2 = 1e-005  pvag = 0  delta = 0.002324  alpha0 = 1.387e-005  beta0 = 30.84  alpha1 = 0.4071  rsh = 90  hdif = 8e-007  xpart = 0  voffcv = 0  cgdo = 0  cgso = 0  cgbo = 0  cgsl = 0  cgdl = 0  ckappa = 0.6  cf = 0  clc = 1e-007  cle = 0.6  dlc = 0  dwc = 0  noff = 1  acde = 1  moin = 15  js = 2.5e-007  jsw = 0  ijth = 0.1  cj = 0.0005  mj = 0.5  pb = 1  cjsw = 5e-010  mjsw = 0.33  pbsw = 1  cjswg = 5e-010  mjswg = 0.33  pbswg = 1  ute = -1.095  kt1 = -0.4864  kt1l = 1.815e-008  kt2 = -0.02468  ua1 = 4.137e-009  ub1 = -7.718e-018  uc1 = -7.115e-011  at = 3.07e+004  prt = 4048  wl = 0  wln = 1  ww = -4.2e-014  wwn = 1  wwl = 3.97e-020  ll = -4.702e-014  lln = 1  lw = 0  lwn = 1  lwl = 0  noimod = 2  noia = 1e+020  noib = 5e+004  noic = -1.4e-012  em = 4.1e+007  af = 1  ef = 1  kf = 0  lintnoi = 0  tcj = 0  tcjsw = 0  tcjswg = 0  tpb = 0  tpbsw = 0  tpbswg = 0  lvth0 = 0.1723  wvth0 = 0.02339  pvth0 = -0.03398  lk1 = -0.0122  wk1 = -0.03267  pk1 = -0.03762  lu0 = 0.003  wu0 = -0.000386  pu0 = 0  lua = -1.492e-009  wua = 1.964e-009  pua = -5.358e-010  lub = 8.115e-019  wub = -1.757e-018  pub = -1.89e-019  luc = 0  wuc = -1.2e-010  puc = 0  la0 = 0  wa0 = 0.223  pa0 = -0.6  lags = 0  wags = 0  pags = 0  lketa = -0.01227  wketa = 0.00267  pketa = -0.01  lalpha0 = 3.662e-007  walpha0 = 8.166e-007  palpha0 = 1.516e-007  lalpha1 = -13.9  walpha1 = 0  palpha1 = 0  lbeta0 = 1.494  wbeta0 = 1  pbeta0 = 1.722  lkt1 = -0.07908  wkt1 = 0.04072  pkt1 = -0.01972  lkt2 = -0.03774  wkt2 = -0.03177  pkt2 = 0.03139  lute = 0.1731  wute = 0  pute = 0.2222  lua1 = -2.139e-009  wua1 = 0  pua1 = 1.338e-009  lub1 = -2.608e-019  wub1 = 0  pub1 = -1.908e-018  luc1 = -1.7e-010  wuc1 = 0  puc1 = 0  lvoff = 0.1  wvoff = -0.05603  xti = 3  pvsat = -1.2e+004"
    Error: undefined symbol in: "-0.6046+[mpl_dvth0]"
Questionable use of curly braces in ".model mpl pmos  level = 49  version = 3.3  tnom = 27  mobmod = 1  capmod = 2  paramchk = 1  nqsmod = 0  tox = (1.350e-008+mpl_dtox)  xj = 2e-007  nch = 8.1e+017  vth0 = (-0.6046+mpl_dvth0)  k1 = 0.6908  k2 = 0  k3 = 1.8  k3b = -7.097  w0 = 2.5e-006  nlx = 5.399e-007  dvt0 = 0.1482  dvt1 = 0.01223  dvt2 = -0.1752  dvt0w = 0  dvt1w = 6.557e-007  dvt2w = -0.032  u0 = {0.02288+mpl_du0}  ua = 2.759e-009  ub = 2.479e-019  uc = -4.783e-011  vsat = 8.388e+004  a0 = 0.35  ags = 0.01  b0 = 0  b1 = 0  keta = 0.00369  a1 = 0  a2 = 1  rdsw = 1686  prwg = 0  prwb = 0  wr = 1  lint = -3.458e-008  wint = 3.19e-008  xl = {0+mpl_dxl}  xw = {0+mpl_dxw}  dwg = 0  dwb = 0  voff = -0.132  nfactor = 0.7561  cit = 0  cdsc = 4e-005  cdscd = 0  cdscb = 0.0001  eta0 = 4.89  etab = -0.07  dsub = 0.56  pclm = 1  pdiblc1 = 0.39  pdiblc2 = 0.0007646  pdiblcb = 0  drout = 0.56  pscbe1 = 1e+009  pscbe2 = 1e-005  pvag = 0  delta = 0.002324  alpha0 = 1.387e-005  beta0 = 30.84  alpha1 = 0.4071  rsh = 90  hdif = 8e-007  xpart = 0  voffcv = 0  cgdo = 0  cgso = 0  cgbo = 0  cgsl = 0  cgdl = 0  ckappa = 0.6  cf = 0  clc = 1e-007  cle = 0.6  dlc = 0  dwc = 0  noff = 1  acde = 1  moin = 15  js = 2.5e-007  jsw = 0  ijth = 0.1  cj = 0.0005  mj = 0.5  pb = 1  cjsw = 5e-010  mjsw = 0.33  pbsw = 1  cjswg = 5e-010  mjswg = 0.33  pbswg = 1  ute = -1.095  kt1 = -0.4864  kt1l = 1.815e-008  kt2 = -0.02468  ua1 = 4.137e-009  ub1 = -7.718e-018  uc1 = -7.115e-011  at = 3.07e+004  prt = 4048  wl = 0  wln = 1  ww = -4.2e-014  wwn = 1  wwl = 3.97e-020  ll = -4.702e-014  lln = 1  lw = 0  lwn = 1  lwl = 0  noimod = 2  noia = 1e+020  noib = 5e+004  noic = -1.4e-012  em = 4.1e+007  af = 1  ef = 1  kf = 0  lintnoi = 0  tcj = 0  tcjsw = 0  tcjswg = 0  tpb = 0  tpbsw = 0  tpbswg = 0  lvth0 = 0.1723  wvth0 = 0.02339  pvth0 = -0.03398  lk1 = -0.0122  wk1 = -0.03267  pk1 = -0.03762  lu0 = 0.003  wu0 = -0.000386  pu0 = 0  lua = -1.492e-009  wua = 1.964e-009  pua = -5.358e-010  lub = 8.115e-019  wub = -1.757e-018  pub = -1.89e-019  luc = 0  wuc = -1.2e-010  puc = 0  la0 = 0  wa0 = 0.223  pa0 = -0.6  lags = 0  wags = 0  pags = 0  lketa = -0.01227  wketa = 0.00267  pketa = -0.01  lalpha0 = 3.662e-007  walpha0 = 8.166e-007  palpha0 = 1.516e-007  lalpha1 = -13.9  walpha1 = 0  palpha1 = 0  lbeta0 = 1.494  wbeta0 = 1  pbeta0 = 1.722  lkt1 = -0.07908  wkt1 = 0.04072  pkt1 = -0.01972  lkt2 = -0.03774  wkt2 = -0.03177  pkt2 = 0.03139  lute = 0.1731  wute = 0  pute = 0.2222  lua1 = -2.139e-009  wua1 = 0  pua1 = 1.338e-009  lub1 = -2.608e-019  wub1 = 0  pub1 = -1.908e-018  luc1 = -1.7e-010  wuc1 = 0  puc1 = 0  lvoff = 0.1  wvoff = -0.05603  xti = 3  pvsat = -1.2e+004"
    Error: undefined symbol in: "0.02288+[mpl_du0]"
Questionable use of curly braces in ".model mpl pmos  level = 49  version = 3.3  tnom = 27  mobmod = 1  capmod = 2  paramchk = 1  nqsmod = 0  tox = (1.350e-008+mpl_dtox)  xj = 2e-007  nch = 8.1e+017  vth0 = (-0.6046+mpl_dvth0)  k1 = 0.6908  k2 = 0  k3 = 1.8  k3b = -7.097  w0 = 2.5e-006  nlx = 5.399e-007  dvt0 = 0.1482  dvt1 = 0.01223  dvt2 = -0.1752  dvt0w = 0  dvt1w = 6.557e-007  dvt2w = -0.032  u0 = (0.02288+mpl_du0)  ua = 2.759e-009  ub = 2.479e-019  uc = -4.783e-011  vsat = 8.388e+004  a0 = 0.35  ags = 0.01  b0 = 0  b1 = 0  keta = 0.00369  a1 = 0  a2 = 1  rdsw = 1686  prwg = 0  prwb = 0  wr = 1  lint = -3.458e-008  wint = 3.19e-008  xl = {0+mpl_dxl}  xw = {0+mpl_dxw}  dwg = 0  dwb = 0  voff = -0.132  nfactor = 0.7561  cit = 0  cdsc = 4e-005  cdscd = 0  cdscb = 0.0001  eta0 = 4.89  etab = -0.07  dsub = 0.56  pclm = 1  pdiblc1 = 0.39  pdiblc2 = 0.0007646  pdiblcb = 0  drout = 0.56  pscbe1 = 1e+009  pscbe2 = 1e-005  pvag = 0  delta = 0.002324  alpha0 = 1.387e-005  beta0 = 30.84  alpha1 = 0.4071  rsh = 90  hdif = 8e-007  xpart = 0  voffcv = 0  cgdo = 0  cgso = 0  cgbo = 0  cgsl = 0  cgdl = 0  ckappa = 0.6  cf = 0  clc = 1e-007  cle = 0.6  dlc = 0  dwc = 0  noff = 1  acde = 1  moin = 15  js = 2.5e-007  jsw = 0  ijth = 0.1  cj = 0.0005  mj = 0.5  pb = 1  cjsw = 5e-010  mjsw = 0.33  pbsw = 1  cjswg = 5e-010  mjswg = 0.33  pbswg = 1  ute = -1.095  kt1 = -0.4864  kt1l = 1.815e-008  kt2 = -0.02468  ua1 = 4.137e-009  ub1 = -7.718e-018  uc1 = -7.115e-011  at = 3.07e+004  prt = 4048  wl = 0  wln = 1  ww = -4.2e-014  wwn = 1  wwl = 3.97e-020  ll = -4.702e-014  lln = 1  lw = 0  lwn = 1  lwl = 0  noimod = 2  noia = 1e+020  noib = 5e+004  noic = -1.4e-012  em = 4.1e+007  af = 1  ef = 1  kf = 0  lintnoi = 0  tcj = 0  tcjsw = 0  tcjswg = 0  tpb = 0  tpbsw = 0  tpbswg = 0  lvth0 = 0.1723  wvth0 = 0.02339  pvth0 = -0.03398  lk1 = -0.0122  wk1 = -0.03267  pk1 = -0.03762  lu0 = 0.003  wu0 = -0.000386  pu0 = 0  lua = -1.492e-009  wua = 1.964e-009  pua = -5.358e-010  lub = 8.115e-019  wub = -1.757e-018  pub = -1.89e-019  luc = 0  wuc = -1.2e-010  puc = 0  la0 = 0  wa0 = 0.223  pa0 = -0.6  lags = 0  wags = 0  pags = 0  lketa = -0.01227  wketa = 0.00267  pketa = -0.01  lalpha0 = 3.662e-007  walpha0 = 8.166e-007  palpha0 = 1.516e-007  lalpha1 = -13.9  walpha1 = 0  palpha1 = 0  lbeta0 = 1.494  wbeta0 = 1  pbeta0 = 1.722  lkt1 = -0.07908  wkt1 = 0.04072  pkt1 = -0.01972  lkt2 = -0.03774  wkt2 = -0.03177  pkt2 = 0.03139  lute = 0.1731  wute = 0  pute = 0.2222  lua1 = -2.139e-009  wua1 = 0  pua1 = 1.338e-009  lub1 = -2.608e-019  wub1 = 0  pub1 = -1.908e-018  luc1 = -1.7e-010  wuc1 = 0  puc1 = 0  lvoff = 0.1  wvoff = -0.05603  xti = 3  pvsat = -1.2e+004"
    Error: undefined symbol in: "0+[mpl_dxl]"
Questionable use of curly braces in ".model mpl pmos  level = 49  version = 3.3  tnom = 27  mobmod = 1  capmod = 2  paramchk = 1  nqsmod = 0  tox = (1.350e-008+mpl_dtox)  xj = 2e-007  nch = 8.1e+017  vth0 = (-0.6046+mpl_dvth0)  k1 = 0.6908  k2 = 0  k3 = 1.8  k3b = -7.097  w0 = 2.5e-006  nlx = 5.399e-007  dvt0 = 0.1482  dvt1 = 0.01223  dvt2 = -0.1752  dvt0w = 0  dvt1w = 6.557e-007  dvt2w = -0.032  u0 = (0.02288+mpl_du0)  ua = 2.759e-009  ub = 2.479e-019  uc = -4.783e-011  vsat = 8.388e+004  a0 = 0.35  ags = 0.01  b0 = 0  b1 = 0  keta = 0.00369  a1 = 0  a2 = 1  rdsw = 1686  prwg = 0  prwb = 0  wr = 1  lint = -3.458e-008  wint = 3.19e-008  xl = (0+mpl_dxl)  xw = {0+mpl_dxw}  dwg = 0  dwb = 0  voff = -0.132  nfactor = 0.7561  cit = 0  cdsc = 4e-005  cdscd = 0  cdscb = 0.0001  eta0 = 4.89  etab = -0.07  dsub = 0.56  pclm = 1  pdiblc1 = 0.39  pdiblc2 = 0.0007646  pdiblcb = 0  drout = 0.56  pscbe1 = 1e+009  pscbe2 = 1e-005  pvag = 0  delta = 0.002324  alpha0 = 1.387e-005  beta0 = 30.84  alpha1 = 0.4071  rsh = 90  hdif = 8e-007  xpart = 0  voffcv = 0  cgdo = 0  cgso = 0  cgbo = 0  cgsl = 0  cgdl = 0  ckappa = 0.6  cf = 0  clc = 1e-007  cle = 0.6  dlc = 0  dwc = 0  noff = 1  acde = 1  moin = 15  js = 2.5e-007  jsw = 0  ijth = 0.1  cj = 0.0005  mj = 0.5  pb = 1  cjsw = 5e-010  mjsw = 0.33  pbsw = 1  cjswg = 5e-010  mjswg = 0.33  pbswg = 1  ute = -1.095  kt1 = -0.4864  kt1l = 1.815e-008  kt2 = -0.02468  ua1 = 4.137e-009  ub1 = -7.718e-018  uc1 = -7.115e-011  at = 3.07e+004  prt = 4048  wl = 0  wln = 1  ww = -4.2e-014  wwn = 1  wwl = 3.97e-020  ll = -4.702e-014  lln = 1  lw = 0  lwn = 1  lwl = 0  noimod = 2  noia = 1e+020  noib = 5e+004  noic = -1.4e-012  em = 4.1e+007  af = 1  ef = 1  kf = 0  lintnoi = 0  tcj = 0  tcjsw = 0  tcjswg = 0  tpb = 0  tpbsw = 0  tpbswg = 0  lvth0 = 0.1723  wvth0 = 0.02339  pvth0 = -0.03398  lk1 = -0.0122  wk1 = -0.03267  pk1 = -0.03762  lu0 = 0.003  wu0 = -0.000386  pu0 = 0  lua = -1.492e-009  wua = 1.964e-009  pua = -5.358e-010  lub = 8.115e-019  wub = -1.757e-018  pub = -1.89e-019  luc = 0  wuc = -1.2e-010  puc = 0  la0 = 0  wa0 = 0.223  pa0 = -0.6  lags = 0  wags = 0  pags = 0  lketa = -0.01227  wketa = 0.00267  pketa = -0.01  lalpha0 = 3.662e-007  walpha0 = 8.166e-007  palpha0 = 1.516e-007  lalpha1 = -13.9  walpha1 = 0  palpha1 = 0  lbeta0 = 1.494  wbeta0 = 1  pbeta0 = 1.722  lkt1 = -0.07908  wkt1 = 0.04072  pkt1 = -0.01972  lkt2 = -0.03774  wkt2 = -0.03177  pkt2 = 0.03139  lute = 0.1731  wute = 0  pute = 0.2222  lua1 = -2.139e-009  wua1 = 0  pua1 = 1.338e-009  lub1 = -2.608e-019  wub1 = 0  pub1 = -1.908e-018  luc1 = -1.7e-010  wuc1 = 0  puc1 = 0  lvoff = 0.1  wvoff = -0.05603  xti = 3  pvsat = -1.2e+004"
    Error: undefined symbol in: "0+[mpl_dxw]"
Questionable use of curly braces in ".model mnl nmos  level = 49  version = 3.3  tnom = 27  mobmod = 1  capmod = 2  paramchk = 1  nqsmod = 0  tox = {1.350e-008+mnl_dtox}  xj = 2.5e-007  nch = 1.6e+017  vth0 = {0.3903+mnl_dvth0}  k1 = 0.5383  k2 = 0.02992  k3 = 10  k3b = 0  w0 = 2.5e-006  nlx = 5.597e-007  dvt0 = 10  dvt1 = 1.049  dvt2 = 0.02202  dvt0w = 0.1323  dvt1w = 1.305e+005  dvt2w = -0.0255  u0 = {0.05189+mnl_du0}  ua = 4.971e-011  ub = 3.336e-018  uc = 6.065e-011  vsat = 7.434e+004  a0 = 1.509  ags = 0.1713  b0 = 0  b1 = 0  keta = -0.01391  a1 = 0  a2 = 1  rdsw = 1500  prwg = 0  prwb = 0  wr = 1  lint = 8.182e-009  wint = 1.5e-007  xl = {0+mnl_dxl}  xw = {0+mnl_dxw}  dwg = 0  dwb = 0  voff = -0.06781  nfactor = 0.5096  cit = 0  cdsc = 0.00024  cdscd = 0  cdscb = 2.721e-005  eta0 = 0.13  etab = -0.038  dsub = 0.56  pclm = 2.48  pdiblc1 = 0.05447  pdiblc2 = 0.001  pdiblcb = 0  drout = 0.56  pscbe1 = 5.93e+008  pscbe2 = 5e-005  pvag = 0  delta = 0.02  alpha0 = 9e-007  beta0 = 36  alpha1 = 12.5  rsh = 40  hdif = 8e-007  xpart = 0  voffcv = 0  cgdo = 0  cgso = 0  cgbo = 0  cgsl = 0  cgdl = 0  ckappa = 0.6  cf = 0  clc = 1e-007  cle = 0.6  dlc = 0  dwc = 0  noff = 1  acde = 1  moin = 15  js = 2e-007  jsw = 0  ijth = 0.1  cj = 0.0005  mj = 0.5  pb = 1  cjsw = 5e-010  mjsw = 0.33  pbsw = 1  cjswg = 5e-010  mjswg = 0.33  pbswg = 1  ute = -1.47  kt1 = -0.3048  kt1l = -6e-008  kt2 = -0.03092  ua1 = 3.457e-009  ub1 = -5.429e-018  uc1 = -2.403e-011  at = 2.41e+004  prt = 1302  wl = -6.2e-014  wln = 1  ww = -4.843e-014  wwn = 1  wwl = 5e-020  ll = 4.362e-014  lln = 1  lw = 0  lwn = 1  lwl = 0  noimod = 2  noia = 1e+020  noib = 5e+004  noic = -1.4e-012  em = 4.1e+007  af = 1  ef = 1  kf = 0  lintnoi = 0  tcj = 0  tcjsw = 0  tcjswg = 0  tpb = 0  tpbsw = 0  tpbswg = 0  lvth0 = -0.06885  wvth0 = -0.0198  pvth0 = 0  lk1 = -0.0716  wk1 = 0.025  pk1 = 0  lu0 = -0.001214  wu0 = 0  pu0 = 0  lua = -9.268e-010  wua = 2.076e-010  pua = -2e-010  lub = -1e-018  wub = -2.03e-019  pub = 0  luc = -1.119e-010  wuc = 0  puc = 0  la0 = -0.397  wa0 = 0.8992  pa0 = 0  lags = -0.0128  wags = -0.0171  pags = 0.39  lketa = 0.02  wketa = 0.0039  pketa = -0.042  lalpha0 = 0  walpha0 = 0  palpha0 = 0  lalpha1 = 0  walpha1 = 0  palpha1 = 0  lbeta0 = 0  wbeta0 = 0  pbeta0 = 0  lkt1 = 0.02557  wkt1 = -0.02285  pkt1 = 0  lkt2 = -0.003253  wkt2 = -0.004963  pkt2 = 0  lute = -0.07347  wute = 0.101  pute = 0  lua1 = -7.264e-010  wua1 = 1.746e-010  pua1 = 0  lub1 = 5.02e-019  wub1 = -4.696e-019  pub1 = 0  luc1 = 0  wuc1 = 0  puc1 = 0  xti = 3  pvsat = -1000"
    Error: undefined symbol in: "1.350e-008+[mnl_dtox]"
Questionable use of curly braces in ".model mnl nmos  level = 49  version = 3.3  tnom = 27  mobmod = 1  capmod = 2  paramchk = 1  nqsmod = 0  tox = (1.350e-008+mnl_dtox)  xj = 2.5e-007  nch = 1.6e+017  vth0 = {0.3903+mnl_dvth0}  k1 = 0.5383  k2 = 0.02992  k3 = 10  k3b = 0  w0 = 2.5e-006  nlx = 5.597e-007  dvt0 = 10  dvt1 = 1.049  dvt2 = 0.02202  dvt0w = 0.1323  dvt1w = 1.305e+005  dvt2w = -0.0255  u0 = {0.05189+mnl_du0}  ua = 4.971e-011  ub = 3.336e-018  uc = 6.065e-011  vsat = 7.434e+004  a0 = 1.509  ags = 0.1713  b0 = 0  b1 = 0  keta = -0.01391  a1 = 0  a2 = 1  rdsw = 1500  prwg = 0  prwb = 0  wr = 1  lint = 8.182e-009  wint = 1.5e-007  xl = {0+mnl_dxl}  xw = {0+mnl_dxw}  dwg = 0  dwb = 0  voff = -0.06781  nfactor = 0.5096  cit = 0  cdsc = 0.00024  cdscd = 0  cdscb = 2.721e-005  eta0 = 0.13  etab = -0.038  dsub = 0.56  pclm = 2.48  pdiblc1 = 0.05447  pdiblc2 = 0.001  pdiblcb = 0  drout = 0.56  pscbe1 = 5.93e+008  pscbe2 = 5e-005  pvag = 0  delta = 0.02  alpha0 = 9e-007  beta0 = 36  alpha1 = 12.5  rsh = 40  hdif = 8e-007  xpart = 0  voffcv = 0  cgdo = 0  cgso = 0  cgbo = 0  cgsl = 0  cgdl = 0  ckappa = 0.6  cf = 0  clc = 1e-007  cle = 0.6  dlc = 0  dwc = 0  noff = 1  acde = 1  moin = 15  js = 2e-007  jsw = 0  ijth = 0.1  cj = 0.0005  mj = 0.5  pb = 1  cjsw = 5e-010  mjsw = 0.33  pbsw = 1  cjswg = 5e-010  mjswg = 0.33  pbswg = 1  ute = -1.47  kt1 = -0.3048  kt1l = -6e-008  kt2 = -0.03092  ua1 = 3.457e-009  ub1 = -5.429e-018  uc1 = -2.403e-011  at = 2.41e+004  prt = 1302  wl = -6.2e-014  wln = 1  ww = -4.843e-014  wwn = 1  wwl = 5e-020  ll = 4.362e-014  lln = 1  lw = 0  lwn = 1  lwl = 0  noimod = 2  noia = 1e+020  noib = 5e+004  noic = -1.4e-012  em = 4.1e+007  af = 1  ef = 1  kf = 0  lintnoi = 0  tcj = 0  tcjsw = 0  tcjswg = 0  tpb = 0  tpbsw = 0  tpbswg = 0  lvth0 = -0.06885  wvth0 = -0.0198  pvth0 = 0  lk1 = -0.0716  wk1 = 0.025  pk1 = 0  lu0 = -0.001214  wu0 = 0  pu0 = 0  lua = -9.268e-010  wua = 2.076e-010  pua = -2e-010  lub = -1e-018  wub = -2.03e-019  pub = 0  luc = -1.119e-010  wuc = 0  puc = 0  la0 = -0.397  wa0 = 0.8992  pa0 = 0  lags = -0.0128  wags = -0.0171  pags = 0.39  lketa = 0.02  wketa = 0.0039  pketa = -0.042  lalpha0 = 0  walpha0 = 0  palpha0 = 0  lalpha1 = 0  walpha1 = 0  palpha1 = 0  lbeta0 = 0  wbeta0 = 0  pbeta0 = 0  lkt1 = 0.02557  wkt1 = -0.02285  pkt1 = 0  lkt2 = -0.003253  wkt2 = -0.004963  pkt2 = 0  lute = -0.07347  wute = 0.101  pute = 0  lua1 = -7.264e-010  wua1 = 1.746e-010  pua1 = 0  lub1 = 5.02e-019  wub1 = -4.696e-019  pub1 = 0  luc1 = 0  wuc1 = 0  puc1 = 0  xti = 3  pvsat = -1000"
    Error: undefined symbol in: "0.3903+[mnl_dvth0]"
Questionable use of curly braces in ".model mnl nmos  level = 49  version = 3.3  tnom = 27  mobmod = 1  capmod = 2  paramchk = 1  nqsmod = 0  tox = (1.350e-008+mnl_dtox)  xj = 2.5e-007  nch = 1.6e+017  vth0 = (0.3903+mnl_dvth0)  k1 = 0.5383  k2 = 0.02992  k3 = 10  k3b = 0  w0 = 2.5e-006  nlx = 5.597e-007  dvt0 = 10  dvt1 = 1.049  dvt2 = 0.02202  dvt0w = 0.1323  dvt1w = 1.305e+005  dvt2w = -0.0255  u0 = {0.05189+mnl_du0}  ua = 4.971e-011  ub = 3.336e-018  uc = 6.065e-011  vsat = 7.434e+004  a0 = 1.509  ags = 0.1713  b0 = 0  b1 = 0  keta = -0.01391  a1 = 0  a2 = 1  rdsw = 1500  prwg = 0  prwb = 0  wr = 1  lint = 8.182e-009  wint = 1.5e-007  xl = {0+mnl_dxl}  xw = {0+mnl_dxw}  dwg = 0  dwb = 0  voff = -0.06781  nfactor = 0.5096  cit = 0  cdsc = 0.00024  cdscd = 0  cdscb = 2.721e-005  eta0 = 0.13  etab = -0.038  dsub = 0.56  pclm = 2.48  pdiblc1 = 0.05447  pdiblc2 = 0.001  pdiblcb = 0  drout = 0.56  pscbe1 = 5.93e+008  pscbe2 = 5e-005  pvag = 0  delta = 0.02  alpha0 = 9e-007  beta0 = 36  alpha1 = 12.5  rsh = 40  hdif = 8e-007  xpart = 0  voffcv = 0  cgdo = 0  cgso = 0  cgbo = 0  cgsl = 0  cgdl = 0  ckappa = 0.6  cf = 0  clc = 1e-007  cle = 0.6  dlc = 0  dwc = 0  noff = 1  acde = 1  moin = 15  js = 2e-007  jsw = 0  ijth = 0.1  cj = 0.0005  mj = 0.5  pb = 1  cjsw = 5e-010  mjsw = 0.33  pbsw = 1  cjswg = 5e-010  mjswg = 0.33  pbswg = 1  ute = -1.47  kt1 = -0.3048  kt1l = -6e-008  kt2 = -0.03092  ua1 = 3.457e-009  ub1 = -5.429e-018  uc1 = -2.403e-011  at = 2.41e+004  prt = 1302  wl = -6.2e-014  wln = 1  ww = -4.843e-014  wwn = 1  wwl = 5e-020  ll = 4.362e-014  lln = 1  lw = 0  lwn = 1  lwl = 0  noimod = 2  noia = 1e+020  noib = 5e+004  noic = -1.4e-012  em = 4.1e+007  af = 1  ef = 1  kf = 0  lintnoi = 0  tcj = 0  tcjsw = 0  tcjswg = 0  tpb = 0  tpbsw = 0  tpbswg = 0  lvth0 = -0.06885  wvth0 = -0.0198  pvth0 = 0  lk1 = -0.0716  wk1 = 0.025  pk1 = 0  lu0 = -0.001214  wu0 = 0  pu0 = 0  lua = -9.268e-010  wua = 2.076e-010  pua = -2e-010  lub = -1e-018  wub = -2.03e-019  pub = 0  luc = -1.119e-010  wuc = 0  puc = 0  la0 = -0.397  wa0 = 0.8992  pa0 = 0  lags = -0.0128  wags = -0.0171  pags = 0.39  lketa = 0.02  wketa = 0.0039  pketa = -0.042  lalpha0 = 0  walpha0 = 0  palpha0 = 0  lalpha1 = 0  walpha1 = 0  palpha1 = 0  lbeta0 = 0  wbeta0 = 0  pbeta0 = 0  lkt1 = 0.02557  wkt1 = -0.02285  pkt1 = 0  lkt2 = -0.003253  wkt2 = -0.004963  pkt2 = 0  lute = -0.07347  wute = 0.101  pute = 0  lua1 = -7.264e-010  wua1 = 1.746e-010  pua1 = 0  lub1 = 5.02e-019  wub1 = -4.696e-019  pub1 = 0  luc1 = 0  wuc1 = 0  puc1 = 0  xti = 3  pvsat = -1000"
    Error: undefined symbol in: "0.05189+[mnl_du0]"
Questionable use of curly braces in ".model mnl nmos  level = 49  version = 3.3  tnom = 27  mobmod = 1  capmod = 2  paramchk = 1  nqsmod = 0  tox = (1.350e-008+mnl_dtox)  xj = 2.5e-007  nch = 1.6e+017  vth0 = (0.3903+mnl_dvth0)  k1 = 0.5383  k2 = 0.02992  k3 = 10  k3b = 0  w0 = 2.5e-006  nlx = 5.597e-007  dvt0 = 10  dvt1 = 1.049  dvt2 = 0.02202  dvt0w = 0.1323  dvt1w = 1.305e+005  dvt2w = -0.0255  u0 = (0.05189+mnl_du0)  ua = 4.971e-011  ub = 3.336e-018  uc = 6.065e-011  vsat = 7.434e+004  a0 = 1.509  ags = 0.1713  b0 = 0  b1 = 0  keta = -0.01391  a1 = 0  a2 = 1  rdsw = 1500  prwg = 0  prwb = 0  wr = 1  lint = 8.182e-009  wint = 1.5e-007  xl = {0+mnl_dxl}  xw = {0+mnl_dxw}  dwg = 0  dwb = 0  voff = -0.06781  nfactor = 0.5096  cit = 0  cdsc = 0.00024  cdscd = 0  cdscb = 2.721e-005  eta0 = 0.13  etab = -0.038  dsub = 0.56  pclm = 2.48  pdiblc1 = 0.05447  pdiblc2 = 0.001  pdiblcb = 0  drout = 0.56  pscbe1 = 5.93e+008  pscbe2 = 5e-005  pvag = 0  delta = 0.02  alpha0 = 9e-007  beta0 = 36  alpha1 = 12.5  rsh = 40  hdif = 8e-007  xpart = 0  voffcv = 0  cgdo = 0  cgso = 0  cgbo = 0  cgsl = 0  cgdl = 0  ckappa = 0.6  cf = 0  clc = 1e-007  cle = 0.6  dlc = 0  dwc = 0  noff = 1  acde = 1  moin = 15  js = 2e-007  jsw = 0  ijth = 0.1  cj = 0.0005  mj = 0.5  pb = 1  cjsw = 5e-010  mjsw = 0.33  pbsw = 1  cjswg = 5e-010  mjswg = 0.33  pbswg = 1  ute = -1.47  kt1 = -0.3048  kt1l = -6e-008  kt2 = -0.03092  ua1 = 3.457e-009  ub1 = -5.429e-018  uc1 = -2.403e-011  at = 2.41e+004  prt = 1302  wl = -6.2e-014  wln = 1  ww = -4.843e-014  wwn = 1  wwl = 5e-020  ll = 4.362e-014  lln = 1  lw = 0  lwn = 1  lwl = 0  noimod = 2  noia = 1e+020  noib = 5e+004  noic = -1.4e-012  em = 4.1e+007  af = 1  ef = 1  kf = 0  lintnoi = 0  tcj = 0  tcjsw = 0  tcjswg = 0  tpb = 0  tpbsw = 0  tpbswg = 0  lvth0 = -0.06885  wvth0 = -0.0198  pvth0 = 0  lk1 = -0.0716  wk1 = 0.025  pk1 = 0  lu0 = -0.001214  wu0 = 0  pu0 = 0  lua = -9.268e-010  wua = 2.076e-010  pua = -2e-010  lub = -1e-018  wub = -2.03e-019  pub = 0  luc = -1.119e-010  wuc = 0  puc = 0  la0 = -0.397  wa0 = 0.8992  pa0 = 0  lags = -0.0128  wags = -0.0171  pags = 0.39  lketa = 0.02  wketa = 0.0039  pketa = -0.042  lalpha0 = 0  walpha0 = 0  palpha0 = 0  lalpha1 = 0  walpha1 = 0  palpha1 = 0  lbeta0 = 0  wbeta0 = 0  pbeta0 = 0  lkt1 = 0.02557  wkt1 = -0.02285  pkt1 = 0  lkt2 = -0.003253  wkt2 = -0.004963  pkt2 = 0  lute = -0.07347  wute = 0.101  pute = 0  lua1 = -7.264e-010  wua1 = 1.746e-010  pua1 = 0  lub1 = 5.02e-019  wub1 = -4.696e-019  pub1 = 0  luc1 = 0  wuc1 = 0  puc1 = 0  xti = 3  pvsat = -1000"
    Error: undefined symbol in: "0+[mnl_dxl]"
Questionable use of curly braces in ".model mnl nmos  level = 49  version = 3.3  tnom = 27  mobmod = 1  capmod = 2  paramchk = 1  nqsmod = 0  tox = (1.350e-008+mnl_dtox)  xj = 2.5e-007  nch = 1.6e+017  vth0 = (0.3903+mnl_dvth0)  k1 = 0.5383  k2 = 0.02992  k3 = 10  k3b = 0  w0 = 2.5e-006  nlx = 5.597e-007  dvt0 = 10  dvt1 = 1.049  dvt2 = 0.02202  dvt0w = 0.1323  dvt1w = 1.305e+005  dvt2w = -0.0255  u0 = (0.05189+mnl_du0)  ua = 4.971e-011  ub = 3.336e-018  uc = 6.065e-011  vsat = 7.434e+004  a0 = 1.509  ags = 0.1713  b0 = 0  b1 = 0  keta = -0.01391  a1 = 0  a2 = 1  rdsw = 1500  prwg = 0  prwb = 0  wr = 1  lint = 8.182e-009  wint = 1.5e-007  xl = (0+mnl_dxl)  xw = {0+mnl_dxw}  dwg = 0  dwb = 0  voff = -0.06781  nfactor = 0.5096  cit = 0  cdsc = 0.00024  cdscd = 0  cdscb = 2.721e-005  eta0 = 0.13  etab = -0.038  dsub = 0.56  pclm = 2.48  pdiblc1 = 0.05447  pdiblc2 = 0.001  pdiblcb = 0  drout = 0.56  pscbe1 = 5.93e+008  pscbe2 = 5e-005  pvag = 0  delta = 0.02  alpha0 = 9e-007  beta0 = 36  alpha1 = 12.5  rsh = 40  hdif = 8e-007  xpart = 0  voffcv = 0  cgdo = 0  cgso = 0  cgbo = 0  cgsl = 0  cgdl = 0  ckappa = 0.6  cf = 0  clc = 1e-007  cle = 0.6  dlc = 0  dwc = 0  noff = 1  acde = 1  moin = 15  js = 2e-007  jsw = 0  ijth = 0.1  cj = 0.0005  mj = 0.5  pb = 1  cjsw = 5e-010  mjsw = 0.33  pbsw = 1  cjswg = 5e-010  mjswg = 0.33  pbswg = 1  ute = -1.47  kt1 = -0.3048  kt1l = -6e-008  kt2 = -0.03092  ua1 = 3.457e-009  ub1 = -5.429e-018  uc1 = -2.403e-011  at = 2.41e+004  prt = 1302  wl = -6.2e-014  wln = 1  ww = -4.843e-014  wwn = 1  wwl = 5e-020  ll = 4.362e-014  lln = 1  lw = 0  lwn = 1  lwl = 0  noimod = 2  noia = 1e+020  noib = 5e+004  noic = -1.4e-012  em = 4.1e+007  af = 1  ef = 1  kf = 0  lintnoi = 0  tcj = 0  tcjsw = 0  tcjswg = 0  tpb = 0  tpbsw = 0  tpbswg = 0  lvth0 = -0.06885  wvth0 = -0.0198  pvth0 = 0  lk1 = -0.0716  wk1 = 0.025  pk1 = 0  lu0 = -0.001214  wu0 = 0  pu0 = 0  lua = -9.268e-010  wua = 2.076e-010  pua = -2e-010  lub = -1e-018  wub = -2.03e-019  pub = 0  luc = -1.119e-010  wuc = 0  puc = 0  la0 = -0.397  wa0 = 0.8992  pa0 = 0  lags = -0.0128  wags = -0.0171  pags = 0.39  lketa = 0.02  wketa = 0.0039  pketa = -0.042  lalpha0 = 0  walpha0 = 0  palpha0 = 0  lalpha1 = 0  walpha1 = 0  palpha1 = 0  lbeta0 = 0  wbeta0 = 0  pbeta0 = 0  lkt1 = 0.02557  wkt1 = -0.02285  pkt1 = 0  lkt2 = -0.003253  wkt2 = -0.004963  pkt2 = 0  lute = -0.07347  wute = 0.101  pute = 0  lua1 = -7.264e-010  wua1 = 1.746e-010  pua1 = 0  lub1 = 5.02e-019  wub1 = -4.696e-019  pub1 = 0  luc1 = 0  wuc1 = 0  puc1 = 0  xti = 3  pvsat = -1000"
    Error: undefined symbol in: "0+[mnl_dxw]"
Questionable use of curly braces in ".model mnl nmos  level = 49  version = 3.3  tnom = 27  mobmod = 1  capmod = 2  paramchk = 1  nqsmod = 0  tox = {1.350e-008+mnl_dtox}  xj = 2.5e-007  nch = 1.6e+017  vth0 = {0.3903+mnl_dvth0}  k1 = 0.5383  k2 = 0.02992  k3 = 10  k3b = 0  w0 = 2.5e-006  nlx = 5.597e-007  dvt0 = 10  dvt1 = 1.049  dvt2 = 0.02202  dvt0w = 0.1323  dvt1w = 1.305e+005  dvt2w = -0.0255  u0 = {0.05189+mnl_du0}  ua = 4.971e-011  ub = 3.336e-018  uc = 6.065e-011  vsat = 7.434e+004  a0 = 1.509  ags = 0.1713  b0 = 0  b1 = 0  keta = -0.01391  a1 = 0  a2 = 1  rdsw = 1500  prwg = 0  prwb = 0  wr = 1  lint = 8.182e-009  wint = 1.5e-007  xl = {0+mnl_dxl}  xw = {0+mnl_dxw}  dwg = 0  dwb = 0  voff = -0.06781  nfactor = 0.5096  cit = 0  cdsc = 0.00024  cdscd = 0  cdscb = 2.721e-005  eta0 = 0.13  etab = -0.038  dsub = 0.56  pclm = 2.48  pdiblc1 = 0.05447  pdiblc2 = 0.001  pdiblcb = 0  drout = 0.56  pscbe1 = 5.93e+008  pscbe2 = 5e-005  pvag = 0  delta = 0.02  alpha0 = 9e-007  beta0 = 36  alpha1 = 12.5  rsh = 40  hdif = 8e-007  xpart = 0  voffcv = 0  cgdo = 0  cgso = 0  cgbo = 0  cgsl = 0  cgdl = 0  ckappa = 0.6  cf = 0  clc = 1e-007  cle = 0.6  dlc = 0  dwc = 0  noff = 1  acde = 1  moin = 15  js = 2e-007  jsw = 0  ijth = 0.1  cj = 0.0005  mj = 0.5  pb = 1  cjsw = 5e-010  mjsw = 0.33  pbsw = 1  cjswg = 5e-010  mjswg = 0.33  pbswg = 1  ute = -1.47  kt1 = -0.3048  kt1l = -6e-008  kt2 = -0.03092  ua1 = 3.457e-009  ub1 = -5.429e-018  uc1 = -2.403e-011  at = 2.41e+004  prt = 1302  wl = -6.2e-014  wln = 1  ww = -4.843e-014  wwn = 1  wwl = 5e-020  ll = 4.362e-014  lln = 1  lw = 0  lwn = 1  lwl = 0  noimod = 2  noia = 1e+020  noib = 5e+004  noic = -1.4e-012  em = 4.1e+007  af = 1  ef = 1  kf = 0  lintnoi = 0  tcj = 0  tcjsw = 0  tcjswg = 0  tpb = 0  tpbsw = 0  tpbswg = 0  lvth0 = -0.06885  wvth0 = -0.0198  pvth0 = 0  lk1 = -0.0716  wk1 = 0.025  pk1 = 0  lu0 = -0.001214  wu0 = 0  pu0 = 0  lua = -9.268e-010  wua = 2.076e-010  pua = -2e-010  lub = -1e-018  wub = -2.03e-019  pub = 0  luc = -1.119e-010  wuc = 0  puc = 0  la0 = -0.397  wa0 = 0.8992  pa0 = 0  lags = -0.0128  wags = -0.0171  pags = 0.39  lketa = 0.02  wketa = 0.0039  pketa = -0.042  lalpha0 = 0  walpha0 = 0  palpha0 = 0  lalpha1 = 0  walpha1 = 0  palpha1 = 0  lbeta0 = 0  wbeta0 = 0  pbeta0 = 0  lkt1 = 0.02557  wkt1 = -0.02285  pkt1 = 0  lkt2 = -0.003253  wkt2 = -0.004963  pkt2 = 0  lute = -0.07347  wute = 0.101  pute = 0  lua1 = -7.264e-010  wua1 = 1.746e-010  pua1 = 0  lub1 = 5.02e-019  wub1 = -4.696e-019  pub1 = 0  luc1 = 0  wuc1 = 0  puc1 = 0  xti = 3  pvsat = -1000"
    Error: undefined symbol in: "1.350e-008+[mnl_dtox]"
Questionable use of curly braces in ".model mnl nmos  level = 49  version = 3.3  tnom = 27  mobmod = 1  capmod = 2  paramchk = 1  nqsmod = 0  tox = (1.350e-008+mnl_dtox)  xj = 2.5e-007  nch = 1.6e+017  vth0 = {0.3903+mnl_dvth0}  k1 = 0.5383  k2 = 0.02992  k3 = 10  k3b = 0  w0 = 2.5e-006  nlx = 5.597e-007  dvt0 = 10  dvt1 = 1.049  dvt2 = 0.02202  dvt0w = 0.1323  dvt1w = 1.305e+005  dvt2w = -0.0255  u0 = {0.05189+mnl_du0}  ua = 4.971e-011  ub = 3.336e-018  uc = 6.065e-011  vsat = 7.434e+004  a0 = 1.509  ags = 0.1713  b0 = 0  b1 = 0  keta = -0.01391  a1 = 0  a2 = 1  rdsw = 1500  prwg = 0  prwb = 0  wr = 1  lint = 8.182e-009  wint = 1.5e-007  xl = {0+mnl_dxl}  xw = {0+mnl_dxw}  dwg = 0  dwb = 0  voff = -0.06781  nfactor = 0.5096  cit = 0  cdsc = 0.00024  cdscd = 0  cdscb = 2.721e-005  eta0 = 0.13  etab = -0.038  dsub = 0.56  pclm = 2.48  pdiblc1 = 0.05447  pdiblc2 = 0.001  pdiblcb = 0  drout = 0.56  pscbe1 = 5.93e+008  pscbe2 = 5e-005  pvag = 0  delta = 0.02  alpha0 = 9e-007  beta0 = 36  alpha1 = 12.5  rsh = 40  hdif = 8e-007  xpart = 0  voffcv = 0  cgdo = 0  cgso = 0  cgbo = 0  cgsl = 0  cgdl = 0  ckappa = 0.6  cf = 0  clc = 1e-007  cle = 0.6  dlc = 0  dwc = 0  noff = 1  acde = 1  moin = 15  js = 2e-007  jsw = 0  ijth = 0.1  cj = 0.0005  mj = 0.5  pb = 1  cjsw = 5e-010  mjsw = 0.33  pbsw = 1  cjswg = 5e-010  mjswg = 0.33  pbswg = 1  ute = -1.47  kt1 = -0.3048  kt1l = -6e-008  kt2 = -0.03092  ua1 = 3.457e-009  ub1 = -5.429e-018  uc1 = -2.403e-011  at = 2.41e+004  prt = 1302  wl = -6.2e-014  wln = 1  ww = -4.843e-014  wwn = 1  wwl = 5e-020  ll = 4.362e-014  lln = 1  lw = 0  lwn = 1  lwl = 0  noimod = 2  noia = 1e+020  noib = 5e+004  noic = -1.4e-012  em = 4.1e+007  af = 1  ef = 1  kf = 0  lintnoi = 0  tcj = 0  tcjsw = 0  tcjswg = 0  tpb = 0  tpbsw = 0  tpbswg = 0  lvth0 = -0.06885  wvth0 = -0.0198  pvth0 = 0  lk1 = -0.0716  wk1 = 0.025  pk1 = 0  lu0 = -0.001214  wu0 = 0  pu0 = 0  lua = -9.268e-010  wua = 2.076e-010  pua = -2e-010  lub = -1e-018  wub = -2.03e-019  pub = 0  luc = -1.119e-010  wuc = 0  puc = 0  la0 = -0.397  wa0 = 0.8992  pa0 = 0  lags = -0.0128  wags = -0.0171  pags = 0.39  lketa = 0.02  wketa = 0.0039  pketa = -0.042  lalpha0 = 0  walpha0 = 0  palpha0 = 0  lalpha1 = 0  walpha1 = 0  palpha1 = 0  lbeta0 = 0  wbeta0 = 0  pbeta0 = 0  lkt1 = 0.02557  wkt1 = -0.02285  pkt1 = 0  lkt2 = -0.003253  wkt2 = -0.004963  pkt2 = 0  lute = -0.07347  wute = 0.101  pute = 0  lua1 = -7.264e-010  wua1 = 1.746e-010  pua1 = 0  lub1 = 5.02e-019  wub1 = -4.696e-019  pub1 = 0  luc1 = 0  wuc1 = 0  puc1 = 0  xti = 3  pvsat = -1000"
    Error: undefined symbol in: "0.3903+[mnl_dvth0]"
Questionable use of curly braces in ".model mnl nmos  level = 49  version = 3.3  tnom = 27  mobmod = 1  capmod = 2  paramchk = 1  nqsmod = 0  tox = (1.350e-008+mnl_dtox)  xj = 2.5e-007  nch = 1.6e+017  vth0 = (0.3903+mnl_dvth0)  k1 = 0.5383  k2 = 0.02992  k3 = 10  k3b = 0  w0 = 2.5e-006  nlx = 5.597e-007  dvt0 = 10  dvt1 = 1.049  dvt2 = 0.02202  dvt0w = 0.1323  dvt1w = 1.305e+005  dvt2w = -0.0255  u0 = {0.05189+mnl_du0}  ua = 4.971e-011  ub = 3.336e-018  uc = 6.065e-011  vsat = 7.434e+004  a0 = 1.509  ags = 0.1713  b0 = 0  b1 = 0  keta = -0.01391  a1 = 0  a2 = 1  rdsw = 1500  prwg = 0  prwb = 0  wr = 1  lint = 8.182e-009  wint = 1.5e-007  xl = {0+mnl_dxl}  xw = {0+mnl_dxw}  dwg = 0  dwb = 0  voff = -0.06781  nfactor = 0.5096  cit = 0  cdsc = 0.00024  cdscd = 0  cdscb = 2.721e-005  eta0 = 0.13  etab = -0.038  dsub = 0.56  pclm = 2.48  pdiblc1 = 0.05447  pdiblc2 = 0.001  pdiblcb = 0  drout = 0.56  pscbe1 = 5.93e+008  pscbe2 = 5e-005  pvag = 0  delta = 0.02  alpha0 = 9e-007  beta0 = 36  alpha1 = 12.5  rsh = 40  hdif = 8e-007  xpart = 0  voffcv = 0  cgdo = 0  cgso = 0  cgbo = 0  cgsl = 0  cgdl = 0  ckappa = 0.6  cf = 0  clc = 1e-007  cle = 0.6  dlc = 0  dwc = 0  noff = 1  acde = 1  moin = 15  js = 2e-007  jsw = 0  ijth = 0.1  cj = 0.0005  mj = 0.5  pb = 1  cjsw = 5e-010  mjsw = 0.33  pbsw = 1  cjswg = 5e-010  mjswg = 0.33  pbswg = 1  ute = -1.47  kt1 = -0.3048  kt1l = -6e-008  kt2 = -0.03092  ua1 = 3.457e-009  ub1 = -5.429e-018  uc1 = -2.403e-011  at = 2.41e+004  prt = 1302  wl = -6.2e-014  wln = 1  ww = -4.843e-014  wwn = 1  wwl = 5e-020  ll = 4.362e-014  lln = 1  lw = 0  lwn = 1  lwl = 0  noimod = 2  noia = 1e+020  noib = 5e+004  noic = -1.4e-012  em = 4.1e+007  af = 1  ef = 1  kf = 0  lintnoi = 0  tcj = 0  tcjsw = 0  tcjswg = 0  tpb = 0  tpbsw = 0  tpbswg = 0  lvth0 = -0.06885  wvth0 = -0.0198  pvth0 = 0  lk1 = -0.0716  wk1 = 0.025  pk1 = 0  lu0 = -0.001214  wu0 = 0  pu0 = 0  lua = -9.268e-010  wua = 2.076e-010  pua = -2e-010  lub = -1e-018  wub = -2.03e-019  pub = 0  luc = -1.119e-010  wuc = 0  puc = 0  la0 = -0.397  wa0 = 0.8992  pa0 = 0  lags = -0.0128  wags = -0.0171  pags = 0.39  lketa = 0.02  wketa = 0.0039  pketa = -0.042  lalpha0 = 0  walpha0 = 0  palpha0 = 0  lalpha1 = 0  walpha1 = 0  palpha1 = 0  lbeta0 = 0  wbeta0 = 0  pbeta0 = 0  lkt1 = 0.02557  wkt1 = -0.02285  pkt1 = 0  lkt2 = -0.003253  wkt2 = -0.004963  pkt2 = 0  lute = -0.07347  wute = 0.101  pute = 0  lua1 = -7.264e-010  wua1 = 1.746e-010  pua1 = 0  lub1 = 5.02e-019  wub1 = -4.696e-019  pub1 = 0  luc1 = 0  wuc1 = 0  puc1 = 0  xti = 3  pvsat = -1000"
    Error: undefined symbol in: "0.05189+[mnl_du0]"
Questionable use of curly braces in ".model mnl nmos  level = 49  version = 3.3  tnom = 27  mobmod = 1  capmod = 2  paramchk = 1  nqsmod = 0  tox = (1.350e-008+mnl_dtox)  xj = 2.5e-007  nch = 1.6e+017  vth0 = (0.3903+mnl_dvth0)  k1 = 0.5383  k2 = 0.02992  k3 = 10  k3b = 0  w0 = 2.5e-006  nlx = 5.597e-007  dvt0 = 10  dvt1 = 1.049  dvt2 = 0.02202  dvt0w = 0.1323  dvt1w = 1.305e+005  dvt2w = -0.0255  u0 = (0.05189+mnl_du0)  ua = 4.971e-011  ub = 3.336e-018  uc = 6.065e-011  vsat = 7.434e+004  a0 = 1.509  ags = 0.1713  b0 = 0  b1 = 0  keta = -0.01391  a1 = 0  a2 = 1  rdsw = 1500  prwg = 0  prwb = 0  wr = 1  lint = 8.182e-009  wint = 1.5e-007  xl = {0+mnl_dxl}  xw = {0+mnl_dxw}  dwg = 0  dwb = 0  voff = -0.06781  nfactor = 0.5096  cit = 0  cdsc = 0.00024  cdscd = 0  cdscb = 2.721e-005  eta0 = 0.13  etab = -0.038  dsub = 0.56  pclm = 2.48  pdiblc1 = 0.05447  pdiblc2 = 0.001  pdiblcb = 0  drout = 0.56  pscbe1 = 5.93e+008  pscbe2 = 5e-005  pvag = 0  delta = 0.02  alpha0 = 9e-007  beta0 = 36  alpha1 = 12.5  rsh = 40  hdif = 8e-007  xpart = 0  voffcv = 0  cgdo = 0  cgso = 0  cgbo = 0  cgsl = 0  cgdl = 0  ckappa = 0.6  cf = 0  clc = 1e-007  cle = 0.6  dlc = 0  dwc = 0  noff = 1  acde = 1  moin = 15  js = 2e-007  jsw = 0  ijth = 0.1  cj = 0.0005  mj = 0.5  pb = 1  cjsw = 5e-010  mjsw = 0.33  pbsw = 1  cjswg = 5e-010  mjswg = 0.33  pbswg = 1  ute = -1.47  kt1 = -0.3048  kt1l = -6e-008  kt2 = -0.03092  ua1 = 3.457e-009  ub1 = -5.429e-018  uc1 = -2.403e-011  at = 2.41e+004  prt = 1302  wl = -6.2e-014  wln = 1  ww = -4.843e-014  wwn = 1  wwl = 5e-020  ll = 4.362e-014  lln = 1  lw = 0  lwn = 1  lwl = 0  noimod = 2  noia = 1e+020  noib = 5e+004  noic = -1.4e-012  em = 4.1e+007  af = 1  ef = 1  kf = 0  lintnoi = 0  tcj = 0  tcjsw = 0  tcjswg = 0  tpb = 0  tpbsw = 0  tpbswg = 0  lvth0 = -0.06885  wvth0 = -0.0198  pvth0 = 0  lk1 = -0.0716  wk1 = 0.025  pk1 = 0  lu0 = -0.001214  wu0 = 0  pu0 = 0  lua = -9.268e-010  wua = 2.076e-010  pua = -2e-010  lub = -1e-018  wub = -2.03e-019  pub = 0  luc = -1.119e-010  wuc = 0  puc = 0  la0 = -0.397  wa0 = 0.8992  pa0 = 0  lags = -0.0128  wags = -0.0171  pags = 0.39  lketa = 0.02  wketa = 0.0039  pketa = -0.042  lalpha0 = 0  walpha0 = 0  palpha0 = 0  lalpha1 = 0  walpha1 = 0  palpha1 = 0  lbeta0 = 0  wbeta0 = 0  pbeta0 = 0  lkt1 = 0.02557  wkt1 = -0.02285  pkt1 = 0  lkt2 = -0.003253  wkt2 = -0.004963  pkt2 = 0  lute = -0.07347  wute = 0.101  pute = 0  lua1 = -7.264e-010  wua1 = 1.746e-010  pua1 = 0  lub1 = 5.02e-019  wub1 = -4.696e-019  pub1 = 0  luc1 = 0  wuc1 = 0  puc1 = 0  xti = 3  pvsat = -1000"
    Error: undefined symbol in: "0+[mnl_dxl]"
Questionable use of curly braces in ".model mnl nmos  level = 49  version = 3.3  tnom = 27  mobmod = 1  capmod = 2  paramchk = 1  nqsmod = 0  tox = (1.350e-008+mnl_dtox)  xj = 2.5e-007  nch = 1.6e+017  vth0 = (0.3903+mnl_dvth0)  k1 = 0.5383  k2 = 0.02992  k3 = 10  k3b = 0  w0 = 2.5e-006  nlx = 5.597e-007  dvt0 = 10  dvt1 = 1.049  dvt2 = 0.02202  dvt0w = 0.1323  dvt1w = 1.305e+005  dvt2w = -0.0255  u0 = (0.05189+mnl_du0)  ua = 4.971e-011  ub = 3.336e-018  uc = 6.065e-011  vsat = 7.434e+004  a0 = 1.509  ags = 0.1713  b0 = 0  b1 = 0  keta = -0.01391  a1 = 0  a2 = 1  rdsw = 1500  prwg = 0  prwb = 0  wr = 1  lint = 8.182e-009  wint = 1.5e-007  xl = (0+mnl_dxl)  xw = {0+mnl_dxw}  dwg = 0  dwb = 0  voff = -0.06781  nfactor = 0.5096  cit = 0  cdsc = 0.00024  cdscd = 0  cdscb = 2.721e-005  eta0 = 0.13  etab = -0.038  dsub = 0.56  pclm = 2.48  pdiblc1 = 0.05447  pdiblc2 = 0.001  pdiblcb = 0  drout = 0.56  pscbe1 = 5.93e+008  pscbe2 = 5e-005  pvag = 0  delta = 0.02  alpha0 = 9e-007  beta0 = 36  alpha1 = 12.5  rsh = 40  hdif = 8e-007  xpart = 0  voffcv = 0  cgdo = 0  cgso = 0  cgbo = 0  cgsl = 0  cgdl = 0  ckappa = 0.6  cf = 0  clc = 1e-007  cle = 0.6  dlc = 0  dwc = 0  noff = 1  acde = 1  moin = 15  js = 2e-007  jsw = 0  ijth = 0.1  cj = 0.0005  mj = 0.5  pb = 1  cjsw = 5e-010  mjsw = 0.33  pbsw = 1  cjswg = 5e-010  mjswg = 0.33  pbswg = 1  ute = -1.47  kt1 = -0.3048  kt1l = -6e-008  kt2 = -0.03092  ua1 = 3.457e-009  ub1 = -5.429e-018  uc1 = -2.403e-011  at = 2.41e+004  prt = 1302  wl = -6.2e-014  wln = 1  ww = -4.843e-014  wwn = 1  wwl = 5e-020  ll = 4.362e-014  lln = 1  lw = 0  lwn = 1  lwl = 0  noimod = 2  noia = 1e+020  noib = 5e+004  noic = -1.4e-012  em = 4.1e+007  af = 1  ef = 1  kf = 0  lintnoi = 0  tcj = 0  tcjsw = 0  tcjswg = 0  tpb = 0  tpbsw = 0  tpbswg = 0  lvth0 = -0.06885  wvth0 = -0.0198  pvth0 = 0  lk1 = -0.0716  wk1 = 0.025  pk1 = 0  lu0 = -0.001214  wu0 = 0  pu0 = 0  lua = -9.268e-010  wua = 2.076e-010  pua = -2e-010  lub = -1e-018  wub = -2.03e-019  pub = 0  luc = -1.119e-010  wuc = 0  puc = 0  la0 = -0.397  wa0 = 0.8992  pa0 = 0  lags = -0.0128  wags = -0.0171  pags = 0.39  lketa = 0.02  wketa = 0.0039  pketa = -0.042  lalpha0 = 0  walpha0 = 0  palpha0 = 0  lalpha1 = 0  walpha1 = 0  palpha1 = 0  lbeta0 = 0  wbeta0 = 0  pbeta0 = 0  lkt1 = 0.02557  wkt1 = -0.02285  pkt1 = 0  lkt2 = -0.003253  wkt2 = -0.004963  pkt2 = 0  lute = -0.07347  wute = 0.101  pute = 0  lua1 = -7.264e-010  wua1 = 1.746e-010  pua1 = 0  lub1 = 5.02e-019  wub1 = -4.696e-019  pub1 = 0  luc1 = 0  wuc1 = 0  puc1 = 0  xti = 3  pvsat = -1000"
    Error: undefined symbol in: "0+[mnl_dxw]"
Questionable use of curly braces in ".model mnl nmos  level = 49  version = 3.3  tnom = 27  mobmod = 1  capmod = 2  paramchk = 1  nqsmod = 0  tox = {1.350e-008+mnl_dtox}  xj = 2.5e-007  nch = 1.6e+017  vth0 = {0.3903+mnl_dvth0}  k1 = 0.5383  k2 = 0.02992  k3 = 10  k3b = 0  w0 = 2.5e-006  nlx = 5.597e-007  dvt0 = 10  dvt1 = 1.049  dvt2 = 0.02202  dvt0w = 0.1323  dvt1w = 1.305e+005  dvt2w = -0.0255  u0 = {0.05189+mnl_du0}  ua = 4.971e-011  ub = 3.336e-018  uc = 6.065e-011  vsat = 7.434e+004  a0 = 1.509  ags = 0.1713  b0 = 0  b1 = 0  keta = -0.01391  a1 = 0  a2 = 1  rdsw = 1500  prwg = 0  prwb = 0  wr = 1  lint = 8.182e-009  wint = 1.5e-007  xl = {0+mnl_dxl}  xw = {0+mnl_dxw}  dwg = 0  dwb = 0  voff = -0.06781  nfactor = 0.5096  cit = 0  cdsc = 0.00024  cdscd = 0  cdscb = 2.721e-005  eta0 = 0.13  etab = -0.038  dsub = 0.56  pclm = 2.48  pdiblc1 = 0.05447  pdiblc2 = 0.001  pdiblcb = 0  drout = 0.56  pscbe1 = 5.93e+008  pscbe2 = 5e-005  pvag = 0  delta = 0.02  alpha0 = 9e-007  beta0 = 36  alpha1 = 12.5  rsh = 40  hdif = 8e-007  xpart = 0  voffcv = 0  cgdo = 0  cgso = 0  cgbo = 0  cgsl = 0  cgdl = 0  ckappa = 0.6  cf = 0  clc = 1e-007  cle = 0.6  dlc = 0  dwc = 0  noff = 1  acde = 1  moin = 15  js = 2e-007  jsw = 0  ijth = 0.1  cj = 0.0005  mj = 0.5  pb = 1  cjsw = 5e-010  mjsw = 0.33  pbsw = 1  cjswg = 5e-010  mjswg = 0.33  pbswg = 1  ute = -1.47  kt1 = -0.3048  kt1l = -6e-008  kt2 = -0.03092  ua1 = 3.457e-009  ub1 = -5.429e-018  uc1 = -2.403e-011  at = 2.41e+004  prt = 1302  wl = -6.2e-014  wln = 1  ww = -4.843e-014  wwn = 1  wwl = 5e-020  ll = 4.362e-014  lln = 1  lw = 0  lwn = 1  lwl = 0  noimod = 2  noia = 1e+020  noib = 5e+004  noic = -1.4e-012  em = 4.1e+007  af = 1  ef = 1  kf = 0  lintnoi = 0  tcj = 0  tcjsw = 0  tcjswg = 0  tpb = 0  tpbsw = 0  tpbswg = 0  lvth0 = -0.06885  wvth0 = -0.0198  pvth0 = 0  lk1 = -0.0716  wk1 = 0.025  pk1 = 0  lu0 = -0.001214  wu0 = 0  pu0 = 0  lua = -9.268e-010  wua = 2.076e-010  pua = -2e-010  lub = -1e-018  wub = -2.03e-019  pub = 0  luc = -1.119e-010  wuc = 0  puc = 0  la0 = -0.397  wa0 = 0.8992  pa0 = 0  lags = -0.0128  wags = -0.0171  pags = 0.39  lketa = 0.02  wketa = 0.0039  pketa = -0.042  lalpha0 = 0  walpha0 = 0  palpha0 = 0  lalpha1 = 0  walpha1 = 0  palpha1 = 0  lbeta0 = 0  wbeta0 = 0  pbeta0 = 0  lkt1 = 0.02557  wkt1 = -0.02285  pkt1 = 0  lkt2 = -0.003253  wkt2 = -0.004963  pkt2 = 0  lute = -0.07347  wute = 0.101  pute = 0  lua1 = -7.264e-010  wua1 = 1.746e-010  pua1 = 0  lub1 = 5.02e-019  wub1 = -4.696e-019  pub1 = 0  luc1 = 0  wuc1 = 0  puc1 = 0  xti = 3  pvsat = -1000"
    Error: undefined symbol in: "1.350e-008+[mnl_dtox]"
Questionable use of curly braces in ".model mnl nmos  level = 49  version = 3.3  tnom = 27  mobmod = 1  capmod = 2  paramchk = 1  nqsmod = 0  tox = (1.350e-008+mnl_dtox)  xj = 2.5e-007  nch = 1.6e+017  vth0 = {0.3903+mnl_dvth0}  k1 = 0.5383  k2 = 0.02992  k3 = 10  k3b = 0  w0 = 2.5e-006  nlx = 5.597e-007  dvt0 = 10  dvt1 = 1.049  dvt2 = 0.02202  dvt0w = 0.1323  dvt1w = 1.305e+005  dvt2w = -0.0255  u0 = {0.05189+mnl_du0}  ua = 4.971e-011  ub = 3.336e-018  uc = 6.065e-011  vsat = 7.434e+004  a0 = 1.509  ags = 0.1713  b0 = 0  b1 = 0  keta = -0.01391  a1 = 0  a2 = 1  rdsw = 1500  prwg = 0  prwb = 0  wr = 1  lint = 8.182e-009  wint = 1.5e-007  xl = {0+mnl_dxl}  xw = {0+mnl_dxw}  dwg = 0  dwb = 0  voff = -0.06781  nfactor = 0.5096  cit = 0  cdsc = 0.00024  cdscd = 0  cdscb = 2.721e-005  eta0 = 0.13  etab = -0.038  dsub = 0.56  pclm = 2.48  pdiblc1 = 0.05447  pdiblc2 = 0.001  pdiblcb = 0  drout = 0.56  pscbe1 = 5.93e+008  pscbe2 = 5e-005  pvag = 0  delta = 0.02  alpha0 = 9e-007  beta0 = 36  alpha1 = 12.5  rsh = 40  hdif = 8e-007  xpart = 0  voffcv = 0  cgdo = 0  cgso = 0  cgbo = 0  cgsl = 0  cgdl = 0  ckappa = 0.6  cf = 0  clc = 1e-007  cle = 0.6  dlc = 0  dwc = 0  noff = 1  acde = 1  moin = 15  js = 2e-007  jsw = 0  ijth = 0.1  cj = 0.0005  mj = 0.5  pb = 1  cjsw = 5e-010  mjsw = 0.33  pbsw = 1  cjswg = 5e-010  mjswg = 0.33  pbswg = 1  ute = -1.47  kt1 = -0.3048  kt1l = -6e-008  kt2 = -0.03092  ua1 = 3.457e-009  ub1 = -5.429e-018  uc1 = -2.403e-011  at = 2.41e+004  prt = 1302  wl = -6.2e-014  wln = 1  ww = -4.843e-014  wwn = 1  wwl = 5e-020  ll = 4.362e-014  lln = 1  lw = 0  lwn = 1  lwl = 0  noimod = 2  noia = 1e+020  noib = 5e+004  noic = -1.4e-012  em = 4.1e+007  af = 1  ef = 1  kf = 0  lintnoi = 0  tcj = 0  tcjsw = 0  tcjswg = 0  tpb = 0  tpbsw = 0  tpbswg = 0  lvth0 = -0.06885  wvth0 = -0.0198  pvth0 = 0  lk1 = -0.0716  wk1 = 0.025  pk1 = 0  lu0 = -0.001214  wu0 = 0  pu0 = 0  lua = -9.268e-010  wua = 2.076e-010  pua = -2e-010  lub = -1e-018  wub = -2.03e-019  pub = 0  luc = -1.119e-010  wuc = 0  puc = 0  la0 = -0.397  wa0 = 0.8992  pa0 = 0  lags = -0.0128  wags = -0.0171  pags = 0.39  lketa = 0.02  wketa = 0.0039  pketa = -0.042  lalpha0 = 0  walpha0 = 0  palpha0 = 0  lalpha1 = 0  walpha1 = 0  palpha1 = 0  lbeta0 = 0  wbeta0 = 0  pbeta0 = 0  lkt1 = 0.02557  wkt1 = -0.02285  pkt1 = 0  lkt2 = -0.003253  wkt2 = -0.004963  pkt2 = 0  lute = -0.07347  wute = 0.101  pute = 0  lua1 = -7.264e-010  wua1 = 1.746e-010  pua1 = 0  lub1 = 5.02e-019  wub1 = -4.696e-019  pub1 = 0  luc1 = 0  wuc1 = 0  puc1 = 0  xti = 3  pvsat = -1000"
    Error: undefined symbol in: "0.3903+[mnl_dvth0]"
Questionable use of curly braces in ".model mnl nmos  level = 49  version = 3.3  tnom = 27  mobmod = 1  capmod = 2  paramchk = 1  nqsmod = 0  tox = (1.350e-008+mnl_dtox)  xj = 2.5e-007  nch = 1.6e+017  vth0 = (0.3903+mnl_dvth0)  k1 = 0.5383  k2 = 0.02992  k3 = 10  k3b = 0  w0 = 2.5e-006  nlx = 5.597e-007  dvt0 = 10  dvt1 = 1.049  dvt2 = 0.02202  dvt0w = 0.1323  dvt1w = 1.305e+005  dvt2w = -0.0255  u0 = {0.05189+mnl_du0}  ua = 4.971e-011  ub = 3.336e-018  uc = 6.065e-011  vsat = 7.434e+004  a0 = 1.509  ags = 0.1713  b0 = 0  b1 = 0  keta = -0.01391  a1 = 0  a2 = 1  rdsw = 1500  prwg = 0  prwb = 0  wr = 1  lint = 8.182e-009  wint = 1.5e-007  xl = {0+mnl_dxl}  xw = {0+mnl_dxw}  dwg = 0  dwb = 0  voff = -0.06781  nfactor = 0.5096  cit = 0  cdsc = 0.00024  cdscd = 0  cdscb = 2.721e-005  eta0 = 0.13  etab = -0.038  dsub = 0.56  pclm = 2.48  pdiblc1 = 0.05447  pdiblc2 = 0.001  pdiblcb = 0  drout = 0.56  pscbe1 = 5.93e+008  pscbe2 = 5e-005  pvag = 0  delta = 0.02  alpha0 = 9e-007  beta0 = 36  alpha1 = 12.5  rsh = 40  hdif = 8e-007  xpart = 0  voffcv = 0  cgdo = 0  cgso = 0  cgbo = 0  cgsl = 0  cgdl = 0  ckappa = 0.6  cf = 0  clc = 1e-007  cle = 0.6  dlc = 0  dwc = 0  noff = 1  acde = 1  moin = 15  js = 2e-007  jsw = 0  ijth = 0.1  cj = 0.0005  mj = 0.5  pb = 1  cjsw = 5e-010  mjsw = 0.33  pbsw = 1  cjswg = 5e-010  mjswg = 0.33  pbswg = 1  ute = -1.47  kt1 = -0.3048  kt1l = -6e-008  kt2 = -0.03092  ua1 = 3.457e-009  ub1 = -5.429e-018  uc1 = -2.403e-011  at = 2.41e+004  prt = 1302  wl = -6.2e-014  wln = 1  ww = -4.843e-014  wwn = 1  wwl = 5e-020  ll = 4.362e-014  lln = 1  lw = 0  lwn = 1  lwl = 0  noimod = 2  noia = 1e+020  noib = 5e+004  noic = -1.4e-012  em = 4.1e+007  af = 1  ef = 1  kf = 0  lintnoi = 0  tcj = 0  tcjsw = 0  tcjswg = 0  tpb = 0  tpbsw = 0  tpbswg = 0  lvth0 = -0.06885  wvth0 = -0.0198  pvth0 = 0  lk1 = -0.0716  wk1 = 0.025  pk1 = 0  lu0 = -0.001214  wu0 = 0  pu0 = 0  lua = -9.268e-010  wua = 2.076e-010  pua = -2e-010  lub = -1e-018  wub = -2.03e-019  pub = 0  luc = -1.119e-010  wuc = 0  puc = 0  la0 = -0.397  wa0 = 0.8992  pa0 = 0  lags = -0.0128  wags = -0.0171  pags = 0.39  lketa = 0.02  wketa = 0.0039  pketa = -0.042  lalpha0 = 0  walpha0 = 0  palpha0 = 0  lalpha1 = 0  walpha1 = 0  palpha1 = 0  lbeta0 = 0  wbeta0 = 0  pbeta0 = 0  lkt1 = 0.02557  wkt1 = -0.02285  pkt1 = 0  lkt2 = -0.003253  wkt2 = -0.004963  pkt2 = 0  lute = -0.07347  wute = 0.101  pute = 0  lua1 = -7.264e-010  wua1 = 1.746e-010  pua1 = 0  lub1 = 5.02e-019  wub1 = -4.696e-019  pub1 = 0  luc1 = 0  wuc1 = 0  puc1 = 0  xti = 3  pvsat = -1000"
    Error: undefined symbol in: "0.05189+[mnl_du0]"
Questionable use of curly braces in ".model mnl nmos  level = 49  version = 3.3  tnom = 27  mobmod = 1  capmod = 2  paramchk = 1  nqsmod = 0  tox = (1.350e-008+mnl_dtox)  xj = 2.5e-007  nch = 1.6e+017  vth0 = (0.3903+mnl_dvth0)  k1 = 0.5383  k2 = 0.02992  k3 = 10  k3b = 0  w0 = 2.5e-006  nlx = 5.597e-007  dvt0 = 10  dvt1 = 1.049  dvt2 = 0.02202  dvt0w = 0.1323  dvt1w = 1.305e+005  dvt2w = -0.0255  u0 = (0.05189+mnl_du0)  ua = 4.971e-011  ub = 3.336e-018  uc = 6.065e-011  vsat = 7.434e+004  a0 = 1.509  ags = 0.1713  b0 = 0  b1 = 0  keta = -0.01391  a1 = 0  a2 = 1  rdsw = 1500  prwg = 0  prwb = 0  wr = 1  lint = 8.182e-009  wint = 1.5e-007  xl = {0+mnl_dxl}  xw = {0+mnl_dxw}  dwg = 0  dwb = 0  voff = -0.06781  nfactor = 0.5096  cit = 0  cdsc = 0.00024  cdscd = 0  cdscb = 2.721e-005  eta0 = 0.13  etab = -0.038  dsub = 0.56  pclm = 2.48  pdiblc1 = 0.05447  pdiblc2 = 0.001  pdiblcb = 0  drout = 0.56  pscbe1 = 5.93e+008  pscbe2 = 5e-005  pvag = 0  delta = 0.02  alpha0 = 9e-007  beta0 = 36  alpha1 = 12.5  rsh = 40  hdif = 8e-007  xpart = 0  voffcv = 0  cgdo = 0  cgso = 0  cgbo = 0  cgsl = 0  cgdl = 0  ckappa = 0.6  cf = 0  clc = 1e-007  cle = 0.6  dlc = 0  dwc = 0  noff = 1  acde = 1  moin = 15  js = 2e-007  jsw = 0  ijth = 0.1  cj = 0.0005  mj = 0.5  pb = 1  cjsw = 5e-010  mjsw = 0.33  pbsw = 1  cjswg = 5e-010  mjswg = 0.33  pbswg = 1  ute = -1.47  kt1 = -0.3048  kt1l = -6e-008  kt2 = -0.03092  ua1 = 3.457e-009  ub1 = -5.429e-018  uc1 = -2.403e-011  at = 2.41e+004  prt = 1302  wl = -6.2e-014  wln = 1  ww = -4.843e-014  wwn = 1  wwl = 5e-020  ll = 4.362e-014  lln = 1  lw = 0  lwn = 1  lwl = 0  noimod = 2  noia = 1e+020  noib = 5e+004  noic = -1.4e-012  em = 4.1e+007  af = 1  ef = 1  kf = 0  lintnoi = 0  tcj = 0  tcjsw = 0  tcjswg = 0  tpb = 0  tpbsw = 0  tpbswg = 0  lvth0 = -0.06885  wvth0 = -0.0198  pvth0 = 0  lk1 = -0.0716  wk1 = 0.025  pk1 = 0  lu0 = -0.001214  wu0 = 0  pu0 = 0  lua = -9.268e-010  wua = 2.076e-010  pua = -2e-010  lub = -1e-018  wub = -2.03e-019  pub = 0  luc = -1.119e-010  wuc = 0  puc = 0  la0 = -0.397  wa0 = 0.8992  pa0 = 0  lags = -0.0128  wags = -0.0171  pags = 0.39  lketa = 0.02  wketa = 0.0039  pketa = -0.042  lalpha0 = 0  walpha0 = 0  palpha0 = 0  lalpha1 = 0  walpha1 = 0  palpha1 = 0  lbeta0 = 0  wbeta0 = 0  pbeta0 = 0  lkt1 = 0.02557  wkt1 = -0.02285  pkt1 = 0  lkt2 = -0.003253  wkt2 = -0.004963  pkt2 = 0  lute = -0.07347  wute = 0.101  pute = 0  lua1 = -7.264e-010  wua1 = 1.746e-010  pua1 = 0  lub1 = 5.02e-019  wub1 = -4.696e-019  pub1 = 0  luc1 = 0  wuc1 = 0  puc1 = 0  xti = 3  pvsat = -1000"
    Error: undefined symbol in: "0+[mnl_dxl]"
Questionable use of curly braces in ".model mnl nmos  level = 49  version = 3.3  tnom = 27  mobmod = 1  capmod = 2  paramchk = 1  nqsmod = 0  tox = (1.350e-008+mnl_dtox)  xj = 2.5e-007  nch = 1.6e+017  vth0 = (0.3903+mnl_dvth0)  k1 = 0.5383  k2 = 0.02992  k3 = 10  k3b = 0  w0 = 2.5e-006  nlx = 5.597e-007  dvt0 = 10  dvt1 = 1.049  dvt2 = 0.02202  dvt0w = 0.1323  dvt1w = 1.305e+005  dvt2w = -0.0255  u0 = (0.05189+mnl_du0)  ua = 4.971e-011  ub = 3.336e-018  uc = 6.065e-011  vsat = 7.434e+004  a0 = 1.509  ags = 0.1713  b0 = 0  b1 = 0  keta = -0.01391  a1 = 0  a2 = 1  rdsw = 1500  prwg = 0  prwb = 0  wr = 1  lint = 8.182e-009  wint = 1.5e-007  xl = (0+mnl_dxl)  xw = {0+mnl_dxw}  dwg = 0  dwb = 0  voff = -0.06781  nfactor = 0.5096  cit = 0  cdsc = 0.00024  cdscd = 0  cdscb = 2.721e-005  eta0 = 0.13  etab = -0.038  dsub = 0.56  pclm = 2.48  pdiblc1 = 0.05447  pdiblc2 = 0.001  pdiblcb = 0  drout = 0.56  pscbe1 = 5.93e+008  pscbe2 = 5e-005  pvag = 0  delta = 0.02  alpha0 = 9e-007  beta0 = 36  alpha1 = 12.5  rsh = 40  hdif = 8e-007  xpart = 0  voffcv = 0  cgdo = 0  cgso = 0  cgbo = 0  cgsl = 0  cgdl = 0  ckappa = 0.6  cf = 0  clc = 1e-007  cle = 0.6  dlc = 0  dwc = 0  noff = 1  acde = 1  moin = 15  js = 2e-007  jsw = 0  ijth = 0.1  cj = 0.0005  mj = 0.5  pb = 1  cjsw = 5e-010  mjsw = 0.33  pbsw = 1  cjswg = 5e-010  mjswg = 0.33  pbswg = 1  ute = -1.47  kt1 = -0.3048  kt1l = -6e-008  kt2 = -0.03092  ua1 = 3.457e-009  ub1 = -5.429e-018  uc1 = -2.403e-011  at = 2.41e+004  prt = 1302  wl = -6.2e-014  wln = 1  ww = -4.843e-014  wwn = 1  wwl = 5e-020  ll = 4.362e-014  lln = 1  lw = 0  lwn = 1  lwl = 0  noimod = 2  noia = 1e+020  noib = 5e+004  noic = -1.4e-012  em = 4.1e+007  af = 1  ef = 1  kf = 0  lintnoi = 0  tcj = 0  tcjsw = 0  tcjswg = 0  tpb = 0  tpbsw = 0  tpbswg = 0  lvth0 = -0.06885  wvth0 = -0.0198  pvth0 = 0  lk1 = -0.0716  wk1 = 0.025  pk1 = 0  lu0 = -0.001214  wu0 = 0  pu0 = 0  lua = -9.268e-010  wua = 2.076e-010  pua = -2e-010  lub = -1e-018  wub = -2.03e-019  pub = 0  luc = -1.119e-010  wuc = 0  puc = 0  la0 = -0.397  wa0 = 0.8992  pa0 = 0  lags = -0.0128  wags = -0.0171  pags = 0.39  lketa = 0.02  wketa = 0.0039  pketa = -0.042  lalpha0 = 0  walpha0 = 0  palpha0 = 0  lalpha1 = 0  walpha1 = 0  palpha1 = 0  lbeta0 = 0  wbeta0 = 0  pbeta0 = 0  lkt1 = 0.02557  wkt1 = -0.02285  pkt1 = 0  lkt2 = -0.003253  wkt2 = -0.004963  pkt2 = 0  lute = -0.07347  wute = 0.101  pute = 0  lua1 = -7.264e-010  wua1 = 1.746e-010  pua1 = 0  lub1 = 5.02e-019  wub1 = -4.696e-019  pub1 = 0  luc1 = 0  wuc1 = 0  puc1 = 0  xti = 3  pvsat = -1000"
    Error: undefined symbol in: "0+[mnl_dxw]"
[...]
    Error: undefined symbol in: "0+[mnl_dxw]"
Questionable use of curly braces in ".model mpl pmos  level = 49  version = 3.3  tnom = 27  mobmod = 1  capmod = 2  paramchk = 1  nqsmod = 0  tox = {1.350e-008+mpl_dtox}  xj = 2e-007  nch = 8.1e+017  vth0 = {-0.6046+mpl_dvth0}  k1 = 0.6908  k2 = 0  k3 = 1.8  k3b = -7.097  w0 = 2.5e-006  nlx = 5.399e-007  dvt0 = 0.1482  dvt1 = 0.01223  dvt2 = -0.1752  dvt0w = 0  dvt1w = 6.557e-007  dvt2w = -0.032  u0 = {0.02288+mpl_du0}  ua = 2.759e-009  ub = 2.479e-019  uc = -4.783e-011  vsat = 8.388e+004  a0 = 0.35  ags = 0.01  b0 = 0  b1 = 0  keta = 0.00369  a1 = 0  a2 = 1  rdsw = 1686  prwg = 0  prwb = 0  wr = 1  lint = -3.458e-008  wint = 3.19e-008  xl = {0+mpl_dxl}  xw = {0+mpl_dxw}  dwg = 0  dwb = 0  voff = -0.132  nfactor = 0.7561  cit = 0  cdsc = 4e-005  cdscd = 0  cdscb = 0.0001  eta0 = 4.89  etab = -0.07  dsub = 0.56  pclm = 1  pdiblc1 = 0.39  pdiblc2 = 0.0007646  pdiblcb = 0  drout = 0.56  pscbe1 = 1e+009  pscbe2 = 1e-005  pvag = 0  delta = 0.002324  alpha0 = 1.387e-005  beta0 = 30.84  alpha1 = 0.4071  rsh = 90  hdif = 8e-007  xpart = 0  voffcv = 0  cgdo = 0  cgso = 0  cgbo = 0  cgsl = 0  cgdl = 0  ckappa = 0.6  cf = 0  clc = 1e-007  cle = 0.6  dlc = 0  dwc = 0  noff = 1  acde = 1  moin = 15  js = 2.5e-007  jsw = 0  ijth = 0.1  cj = 0.0005  mj = 0.5  pb = 1  cjsw = 5e-010  mjsw = 0.33  pbsw = 1  cjswg = 5e-010  mjswg = 0.33  pbswg = 1  ute = -1.095  kt1 = -0.4864  kt1l = 1.815e-008  kt2 = -0.02468  ua1 = 4.137e-009  ub1 = -7.718e-018  uc1 = -7.115e-011  at = 3.07e+004  prt = 4048  wl = 0  wln = 1  ww = -4.2e-014  wwn = 1  wwl = 3.97e-020  ll = -4.702e-014  lln = 1  lw = 0  lwn = 1  lwl = 0  noimod = 2  noia = 1e+020  noib = 5e+004  noic = -1.4e-012  em = 4.1e+007  af = 1  ef = 1  kf = 0  lintnoi = 0  tcj = 0  tcjsw = 0  tcjswg = 0  tpb = 0  tpbsw = 0  tpbswg = 0  lvth0 = 0.1723  wvth0 = 0.02339  pvth0 = -0.03398  lk1 = -0.0122  wk1 = -0.03267  pk1 = -0.03762  lu0 = 0.003  wu0 = -0.000386  pu0 = 0  lua = -1.492e-009  wua = 1.964e-009  pua = -5.358e-010  lub = 8.115e-019  wub = -1.757e-018  pub = -1.89e-019  luc = 0  wuc = -1.2e-010  puc = 0  la0 = 0  wa0 = 0.223  pa0 = -0.6  lags = 0  wags = 0  pags = 0  lketa = -0.01227  wketa = 0.00267  pketa = -0.01  lalpha0 = 3.662e-007  walpha0 = 8.166e-007  palpha0 = 1.516e-007  lalpha1 = -13.9  walpha1 = 0  palpha1 = 0  lbeta0 = 1.494  wbeta0 = 1  pbeta0 = 1.722  lkt1 = -0.07908  wkt1 = 0.04072  pkt1 = -0.01972  lkt2 = -0.03774  wkt2 = -0.03177  pkt2 = 0.03139  lute = 0.1731  wute = 0  pute = 0.2222  lua1 = -2.139e-009  wua1 = 0  pua1 = 1.338e-009  lub1 = -2.608e-019  wub1 = 0  pub1 = -1.908e-018  luc1 = -1.7e-010  wuc1 = 0  puc1 = 0  lvoff = 0.1  wvoff = -0.05603  xti = 3  pvsat = -1.2e+004"
    Error: undefined symbol in: "1.350e-008+[mpl_dtox]"
Questionable use of curly braces in ".model mpl pmos  level = 49  version = 3.3  tnom = 27  mobmod = 1  capmod = 2  paramchk = 1  nqsmod = 0  tox = (1.350e-008+mpl_dtox)  xj = 2e-007  nch = 8.1e+017  vth0 = {-0.6046+mpl_dvth0}  k1 = 0.6908  k2 = 0  k3 = 1.8  k3b = -7.097  w0 = 2.5e-006  nlx = 5.399e-007  dvt0 = 0.1482  dvt1 = 0.01223  dvt2 = -0.1752  dvt0w = 0  dvt1w = 6.557e-007  dvt2w = -0.032  u0 = {0.02288+mpl_du0}  ua = 2.759e-009  ub = 2.479e-019  uc = -4.783e-011  vsat = 8.388e+004  a0 = 0.35  ags = 0.01  b0 = 0  b1 = 0  keta = 0.00369  a1 = 0  a2 = 1  rdsw = 1686  prwg = 0  prwb = 0  wr = 1  lint = -3.458e-008  wint = 3.19e-008  xl = {0+mpl_dxl}  xw = {0+mpl_dxw}  dwg = 0  dwb = 0  voff = -0.132  nfactor = 0.7561  cit = 0  cdsc = 4e-005  cdscd = 0  cdscb = 0.0001  eta0 = 4.89  etab = -0.07  dsub = 0.56  pclm = 1  pdiblc1 = 0.39  pdiblc2 = 0.0007646  pdiblcb = 0  drout = 0.56  pscbe1 = 1e+009  pscbe2 = 1e-005  pvag = 0  delta = 0.002324  alpha0 = 1.387e-005  beta0 = 30.84  alpha1 = 0.4071  rsh = 90  hdif = 8e-007  xpart = 0  voffcv = 0  cgdo = 0  cgso = 0  cgbo = 0  cgsl = 0  cgdl = 0  ckappa = 0.6  cf = 0  clc = 1e-007  cle = 0.6  dlc = 0  dwc = 0  noff = 1  acde = 1  moin = 15  js = 2.5e-007  jsw = 0  ijth = 0.1  cj = 0.0005  mj = 0.5  pb = 1  cjsw = 5e-010  mjsw = 0.33  pbsw = 1  cjswg = 5e-010  mjswg = 0.33  pbswg = 1  ute = -1.095  kt1 = -0.4864  kt1l = 1.815e-008  kt2 = -0.02468  ua1 = 4.137e-009  ub1 = -7.718e-018  uc1 = -7.115e-011  at = 3.07e+004  prt = 4048  wl = 0  wln = 1  ww = -4.2e-014  wwn = 1  wwl = 3.97e-020  ll = -4.702e-014  lln = 1  lw = 0  lwn = 1  lwl = 0  noimod = 2  noia = 1e+020  noib = 5e+004  noic = -1.4e-012  em = 4.1e+007  af = 1  ef = 1  kf = 0  lintnoi = 0  tcj = 0  tcjsw = 0  tcjswg = 0  tpb = 0  tpbsw = 0  tpbswg = 0  lvth0 = 0.1723  wvth0 = 0.02339  pvth0 = -0.03398  lk1 = -0.0122  wk1 = -0.03267  pk1 = -0.03762  lu0 = 0.003  wu0 = -0.000386  pu0 = 0  lua = -1.492e-009  wua = 1.964e-009  pua = -5.358e-010  lub = 8.115e-019  wub = -1.757e-018  pub = -1.89e-019  luc = 0  wuc = -1.2e-010  puc = 0  la0 = 0  wa0 = 0.223  pa0 = -0.6  lags = 0  wags = 0  pags = 0  lketa = -0.01227  wketa = 0.00267  pketa = -0.01  lalpha0 = 3.662e-007  walpha0 = 8.166e-007  palpha0 = 1.516e-007  lalpha1 = -13.9  walpha1 = 0  palpha1 = 0  lbeta0 = 1.494  wbeta0 = 1  pbeta0 = 1.722  lkt1 = -0.07908  wkt1 = 0.04072  pkt1 = -0.01972  lkt2 = -0.03774  wkt2 = -0.03177  pkt2 = 0.03139  lute = 0.1731  wute = 0  pute = 0.2222  lua1 = -2.139e-009  wua1 = 0  pua1 = 1.338e-009  lub1 = -2.608e-019  wub1 = 0  pub1 = -1.908e-018  luc1 = -1.7e-010  wuc1 = 0  puc1 = 0  lvoff = 0.1  wvoff = -0.05603  xti = 3  pvsat = -1.2e+004"
    Error: undefined symbol in: "-0.6046+[mpl_dvth0]"
Questionable use of curly braces in ".model mpl pmos  level = 49  version = 3.3  tnom = 27  mobmod = 1  capmod = 2  paramchk = 1  nqsmod = 0  tox = (1.350e-008+mpl_dtox)  xj = 2e-007  nch = 8.1e+017  vth0 = (-0.6046+mpl_dvth0)  k1 = 0.6908  k2 = 0  k3 = 1.8  k3b = -7.097  w0 = 2.5e-006  nlx = 5.399e-007  dvt0 = 0.1482  dvt1 = 0.01223  dvt2 = -0.1752  dvt0w = 0  dvt1w = 6.557e-007  dvt2w = -0.032  u0 = {0.02288+mpl_du0}  ua = 2.759e-009  ub = 2.479e-019  uc = -4.783e-011  vsat = 8.388e+004  a0 = 0.35  ags = 0.01  b0 = 0  b1 = 0  keta = 0.00369  a1 = 0  a2 = 1  rdsw = 1686  prwg = 0  prwb = 0  wr = 1  lint = -3.458e-008  wint = 3.19e-008  xl = {0+mpl_dxl}  xw = {0+mpl_dxw}  dwg = 0  dwb = 0  voff = -0.132  nfactor = 0.7561  cit = 0  cdsc = 4e-005  cdscd = 0  cdscb = 0.0001  eta0 = 4.89  etab = -0.07  dsub = 0.56  pclm = 1  pdiblc1 = 0.39  pdiblc2 = 0.0007646  pdiblcb = 0  drout = 0.56  pscbe1 = 1e+009  pscbe2 = 1e-005  pvag = 0  delta = 0.002324  alpha0 = 1.387e-005  beta0 = 30.84  alpha1 = 0.4071  rsh = 90  hdif = 8e-007  xpart = 0  voffcv = 0  cgdo = 0  cgso = 0  cgbo = 0  cgsl = 0  cgdl = 0  ckappa = 0.6  cf = 0  clc = 1e-007  cle = 0.6  dlc = 0  dwc = 0  noff = 1  acde = 1  moin = 15  js = 2.5e-007  jsw = 0  ijth = 0.1  cj = 0.0005  mj = 0.5  pb = 1  cjsw = 5e-010  mjsw = 0.33  pbsw = 1  cjswg = 5e-010  mjswg = 0.33  pbswg = 1  ute = -1.095  kt1 = -0.4864  kt1l = 1.815e-008  kt2 = -0.02468  ua1 = 4.137e-009  ub1 = -7.718e-018  uc1 = -7.115e-011  at = 3.07e+004  prt = 4048  wl = 0  wln = 1  ww = -4.2e-014  wwn = 1  wwl = 3.97e-020  ll = -4.702e-014  lln = 1  lw = 0  lwn = 1  lwl = 0  noimod = 2  noia = 1e+020  noib = 5e+004  noic = -1.4e-012  em = 4.1e+007  af = 1  ef = 1  kf = 0  lintnoi = 0  tcj = 0  tcjsw = 0  tcjswg = 0  tpb = 0  tpbsw = 0  tpbswg = 0  lvth0 = 0.1723  wvth0 = 0.02339  pvth0 = -0.03398  lk1 = -0.0122  wk1 = -0.03267  pk1 = -0.03762  lu0 = 0.003  wu0 = -0.000386  pu0 = 0  lua = -1.492e-009  wua = 1.964e-009  pua = -5.358e-010  lub = 8.115e-019  wub = -1.757e-018  pub = -1.89e-019  luc = 0  wuc = -1.2e-010  puc = 0  la0 = 0  wa0 = 0.223  pa0 = -0.6  lags = 0  wags = 0  pags = 0  lketa = -0.01227  wketa = 0.00267  pketa = -0.01  lalpha0 = 3.662e-007  walpha0 = 8.166e-007  palpha0 = 1.516e-007  lalpha1 = -13.9  walpha1 = 0  palpha1 = 0  lbeta0 = 1.494  wbeta0 = 1  pbeta0 = 1.722  lkt1 = -0.07908  wkt1 = 0.04072  pkt1 = -0.01972  lkt2 = -0.03774  wkt2 = -0.03177  pkt2 = 0.03139  lute = 0.1731  wute = 0  pute = 0.2222  lua1 = -2.139e-009  wua1 = 0  pua1 = 1.338e-009  lub1 = -2.608e-019  wub1 = 0  pub1 = -1.908e-018  luc1 = -1.7e-010  wuc1 = 0  puc1 = 0  lvoff = 0.1  wvoff = -0.05603  xti = 3  pvsat = -1.2e+004"
    Error: undefined symbol in: "0.02288+[mpl_du0]"
Questionable use of curly braces in ".model mpl pmos  level = 49  version = 3.3  tnom = 27  mobmod = 1  capmod = 2  paramchk = 1  nqsmod = 0  tox = (1.350e-008+mpl_dtox)  xj = 2e-007  nch = 8.1e+017  vth0 = (-0.6046+mpl_dvth0)  k1 = 0.6908  k2 = 0  k3 = 1.8  k3b = -7.097  w0 = 2.5e-006  nlx = 5.399e-007  dvt0 = 0.1482  dvt1 = 0.01223  dvt2 = -0.1752  dvt0w = 0  dvt1w = 6.557e-007  dvt2w = -0.032  u0 = (0.02288+mpl_du0)  ua = 2.759e-009  ub = 2.479e-019  uc = -4.783e-011  vsat = 8.388e+004  a0 = 0.35  ags = 0.01  b0 = 0  b1 = 0  keta = 0.00369  a1 = 0  a2 = 1  rdsw = 1686  prwg = 0  prwb = 0  wr = 1  lint = -3.458e-008  wint = 3.19e-008  xl = {0+mpl_dxl}  xw = {0+mpl_dxw}  dwg = 0  dwb = 0  voff = -0.132  nfactor = 0.7561  cit = 0  cdsc = 4e-005  cdscd = 0  cdscb = 0.0001  eta0 = 4.89  etab = -0.07  dsub = 0.56  pclm = 1  pdiblc1 = 0.39  pdiblc2 = 0.0007646  pdiblcb = 0  drout = 0.56  pscbe1 = 1e+009  pscbe2 = 1e-005  pvag = 0  delta = 0.002324  alpha0 = 1.387e-005  beta0 = 30.84  alpha1 = 0.4071  rsh = 90  hdif = 8e-007  xpart = 0  voffcv = 0  cgdo = 0  cgso = 0  cgbo = 0  cgsl = 0  cgdl = 0  ckappa = 0.6  cf = 0  clc = 1e-007  cle = 0.6  dlc = 0  dwc = 0  noff = 1  acde = 1  moin = 15  js = 2.5e-007  jsw = 0  ijth = 0.1  cj = 0.0005  mj = 0.5  pb = 1  cjsw = 5e-010  mjsw = 0.33  pbsw = 1  cjswg = 5e-010  mjswg = 0.33  pbswg = 1  ute = -1.095  kt1 = -0.4864  kt1l = 1.815e-008  kt2 = -0.02468  ua1 = 4.137e-009  ub1 = -7.718e-018  uc1 = -7.115e-011  at = 3.07e+004  prt = 4048  wl = 0  wln = 1  ww = -4.2e-014  wwn = 1  wwl = 3.97e-020  ll = -4.702e-014  lln = 1  lw = 0  lwn = 1  lwl = 0  noimod = 2  noia = 1e+020  noib = 5e+004  noic = -1.4e-012  em = 4.1e+007  af = 1  ef = 1  kf = 0  lintnoi = 0  tcj = 0  tcjsw = 0  tcjswg = 0  tpb = 0  tpbsw = 0  tpbswg = 0  lvth0 = 0.1723  wvth0 = 0.02339  pvth0 = -0.03398  lk1 = -0.0122  wk1 = -0.03267  pk1 = -0.03762  lu0 = 0.003  wu0 = -0.000386  pu0 = 0  lua = -1.492e-009  wua = 1.964e-009  pua = -5.358e-010  lub = 8.115e-019  wub = -1.757e-018  pub = -1.89e-019  luc = 0  wuc = -1.2e-010  puc = 0  la0 = 0  wa0 = 0.223  pa0 = -0.6  lags = 0  wags = 0  pags = 0  lketa = -0.01227  wketa = 0.00267  pketa = -0.01  lalpha0 = 3.662e-007  walpha0 = 8.166e-007  palpha0 = 1.516e-007  lalpha1 = -13.9  walpha1 = 0  palpha1 = 0  lbeta0 = 1.494  wbeta0 = 1  pbeta0 = 1.722  lkt1 = -0.07908  wkt1 = 0.04072  pkt1 = -0.01972  lkt2 = -0.03774  wkt2 = -0.03177  pkt2 = 0.03139  lute = 0.1731  wute = 0  pute = 0.2222  lua1 = -2.139e-009  wua1 = 0  pua1 = 1.338e-009  lub1 = -2.608e-019  wub1 = 0  pub1 = -1.908e-018  luc1 = -1.7e-010  wuc1 = 0  puc1 = 0  lvoff = 0.1  wvoff = -0.05603  xti = 3  pvsat = -1.2e+004"
    Error: undefined symbol in: "0+[mpl_dxl]"
Questionable use of curly braces in ".model mpl pmos  level = 49  version = 3.3  tnom = 27  mobmod = 1  capmod = 2  paramchk = 1  nqsmod = 0  tox = (1.350e-008+mpl_dtox)  xj = 2e-007  nch = 8.1e+017  vth0 = (-0.6046+mpl_dvth0)  k1 = 0.6908  k2 = 0  k3 = 1.8  k3b = -7.097  w0 = 2.5e-006  nlx = 5.399e-007  dvt0 = 0.1482  dvt1 = 0.01223  dvt2 = -0.1752  dvt0w = 0  dvt1w = 6.557e-007  dvt2w = -0.032  u0 = (0.02288+mpl_du0)  ua = 2.759e-009  ub = 2.479e-019  uc = -4.783e-011  vsat = 8.388e+004  a0 = 0.35  ags = 0.01  b0 = 0  b1 = 0  keta = 0.00369  a1 = 0  a2 = 1  rdsw = 1686  prwg = 0  prwb = 0  wr = 1  lint = -3.458e-008  wint = 3.19e-008  xl = (0+mpl_dxl)  xw = {0+mpl_dxw}  dwg = 0  dwb = 0  voff = -0.132  nfactor = 0.7561  cit = 0  cdsc = 4e-005  cdscd = 0  cdscb = 0.0001  eta0 = 4.89  etab = -0.07  dsub = 0.56  pclm = 1  pdiblc1 = 0.39  pdiblc2 = 0.0007646  pdiblcb = 0  drout = 0.56  pscbe1 = 1e+009  pscbe2 = 1e-005  pvag = 0  delta = 0.002324  alpha0 = 1.387e-005  beta0 = 30.84  alpha1 = 0.4071  rsh = 90  hdif = 8e-007  xpart = 0  voffcv = 0  cgdo = 0  cgso = 0  cgbo = 0  cgsl = 0  cgdl = 0  ckappa = 0.6  cf = 0  clc = 1e-007  cle = 0.6  dlc = 0  dwc = 0  noff = 1  acde = 1  moin = 15  js = 2.5e-007  jsw = 0  ijth = 0.1  cj = 0.0005  mj = 0.5  pb = 1  cjsw = 5e-010  mjsw = 0.33  pbsw = 1  cjswg = 5e-010  mjswg = 0.33  pbswg = 1  ute = -1.095  kt1 = -0.4864  kt1l = 1.815e-008  kt2 = -0.02468  ua1 = 4.137e-009  ub1 = -7.718e-018  uc1 = -7.115e-011  at = 3.07e+004  prt = 4048  wl = 0  wln = 1  ww = -4.2e-014  wwn = 1  wwl = 3.97e-020  ll = -4.702e-014  lln = 1  lw = 0  lwn = 1  lwl = 0  noimod = 2  noia = 1e+020  noib = 5e+004  noic = -1.4e-012  em = 4.1e+007  af = 1  ef = 1  kf = 0  lintnoi = 0  tcj = 0  tcjsw = 0  tcjswg = 0  tpb = 0  tpbsw = 0  tpbswg = 0  lvth0 = 0.1723  wvth0 = 0.02339  pvth0 = -0.03398  lk1 = -0.0122  wk1 = -0.03267  pk1 = -0.03762  lu0 = 0.003  wu0 = -0.000386  pu0 = 0  lua = -1.492e-009  wua = 1.964e-009  pua = -5.358e-010  lub = 8.115e-019  wub = -1.757e-018  pub = -1.89e-019  luc = 0  wuc = -1.2e-010  puc = 0  la0 = 0  wa0 = 0.223  pa0 = -0.6  lags = 0  wags = 0  pags = 0  lketa = -0.01227  wketa = 0.00267  pketa = -0.01  lalpha0 = 3.662e-007  walpha0 = 8.166e-007  palpha0 = 1.516e-007  lalpha1 = -13.9  walpha1 = 0  palpha1 = 0  lbeta0 = 1.494  wbeta0 = 1  pbeta0 = 1.722  lkt1 = -0.07908  wkt1 = 0.04072  pkt1 = -0.01972  lkt2 = -0.03774  wkt2 = -0.03177  pkt2 = 0.03139  lute = 0.1731  wute = 0  pute = 0.2222  lua1 = -2.139e-009  wua1 = 0  pua1 = 1.338e-009  lub1 = -2.608e-019  wub1 = 0  pub1 = -1.908e-018  luc1 = -1.7e-010  wuc1 = 0  puc1 = 0  lvoff = 0.1  wvoff = -0.05603  xti = 3  pvsat = -1.2e+004"
    Error: undefined symbol in: "0+[mpl_dxw]"
Ignoring BSIM parameter XL
Ignoring BSIM parameter XW
Ignoring BSIM parameter HDIF
Ignoring BSIM parameter XL
Ignoring BSIM parameter XW
Ignoring BSIM parameter HDIF
Ignoring BSIM parameter XL
Ignoring BSIM parameter XW
Ignoring BSIM parameter HDIF
Ignoring BSIM parameter XL
Ignoring BSIM parameter XW
Ignoring BSIM parameter HDIF
Ignoring BSIM parameter XL
Ignoring BSIM parameter XW
Ignoring BSIM parameter HDIF
Ignoring BSIM parameter XL
Ignoring BSIM parameter XW
Ignoring BSIM parameter HDIF
Ignoring BSIM parameter XL
Ignoring BSIM parameter XW
Ignoring BSIM parameter HDIF
Ignoring BSIM parameter XL
Ignoring BSIM parameter XW
Ignoring BSIM parameter HDIF
Ignoring BSIM parameter XL
Ignoring BSIM parameter XW
Ignoring BSIM parameter HDIF
Ignoring BSIM parameter XL
Ignoring BSIM parameter XW
Ignoring BSIM parameter HDIF
Ignoring BSIM parameter XL
Ignoring BSIM parameter XW
Ignoring BSIM parameter HDIF
Ignoring BSIM parameter XL
Ignoring BSIM parameter XW
Ignoring BSIM parameter HDIF
Ignoring BSIM parameter XL
Ignoring BSIM parameter XW
Ignoring BSIM parameter HDIF
Ignoring BSIM parameter XL
Ignoring BSIM parameter XW
Ignoring BSIM parameter HDIF
Ignoring BSIM parameter XL
Ignoring BSIM parameter XW
Ignoring BSIM parameter HDIF
Ignoring BSIM parameter XL
Ignoring BSIM parameter XW
Ignoring BSIM parameter HDIF
Ignoring BSIM parameter XL
Ignoring BSIM parameter XW
Ignoring BSIM parameter HDIF
Ignoring BSIM parameter XL
Ignoring BSIM parameter XW
Ignoring BSIM parameter HDIF
Ignoring BSIM parameter XL
Ignoring BSIM parameter XW
Ignoring BSIM parameter HDIF
Ignoring BSIM parameter XL
Ignoring BSIM parameter XW
Ignoring BSIM parameter HDIF
Ignoring BSIM parameter XL
Ignoring BSIM parameter XW
Ignoring BSIM parameter HDIF
Ignoring BSIM parameter XL
Ignoring BSIM parameter XW
Ignoring BSIM parameter HDIF
Ignoring BSIM parameter XL
Ignoring BSIM parameter XW
Ignoring BSIM parameter HDIF
Ignoring BSIM parameter XL
Ignoring BSIM parameter XW
Ignoring BSIM parameter HDIF
Ignoring BSIM parameter XL
Ignoring BSIM parameter XW
Ignoring BSIM parameter HDIF
Ignoring BSIM parameter XL
Ignoring BSIM parameter XW
Ignoring BSIM parameter HDIF
Ignoring BSIM parameter XL
Ignoring BSIM parameter XW
Ignoring BSIM parameter HDIF
Ignoring BSIM parameter XL
Ignoring BSIM parameter XW
Ignoring BSIM parameter HDIF
Ignoring BSIM parameter XL
Ignoring BSIM parameter XW
Ignoring BSIM parameter HDIF
Ignoring BSIM parameter XL
Ignoring BSIM parameter XW
Ignoring BSIM parameter HDIF
Ignoring BSIM parameter XL
Ignoring BSIM parameter XW
Ignoring BSIM parameter HDIF
Error on line 143 : .endl mos comment out by tsuchiya
	 Unknown control card
Error on line 158 : .endl mos comment out by tsuchiya
	 Unknown control card
Error on line 284 : .endl mos comment out by tsuchiya*********************************************************************
	 Unknown control card
Error on line 299 : .endl mos comment out by tsuchiya
	 Unknown control card
Error on line 314 : .endl mos comment out by tsuchiya
	 Unknown control card
Error on line 329 : .endl mos comment out by tsuchiya*********************************************************************
	 Unknown control card
Error on line 344 : .endl mos comment out by tsuchiya*********************************************************************
	 Unknown control card
Error on line 359 : .endl mos comment out by tsuchiya*********************************************************************
	 Unknown control card
Error on line 374 : .endl mos comment out by tsuchiya*********************************************************************
	 Unknown control card
Error on line 389 : .endl mos comment out by tsuchiya
	 Unknown control card
WARNING: Node X1:N006 is floating.

WARNING: Less than two connections to node INP1.  This node is used by V2.
WARNING: Less than two connections to node INN1.  This node is used by V4.
WARNING: Less than two connections to node X1:N006.  This node is used by M:X1:MN6:1.
Direct Newton iteration failed to find .op point.  (Use ".option noopiter" to skip.)
Starting Gmin stepping
Gmin = 10
Gmin = 1.07374
Gmin = 0.115292
Gmin = 0.0123794
Gmin = 0.00132923
Gmin = 0.000142725
Gmin = 1.5325e-005
Gmin = 1.6455e-006
Gmin = 1.76685e-007
Gmin = 1.89714e-008
Gmin = 2.03704e-009
Gmin = 2.18725e-010
Gmin = 2.34854e-011
Gmin = 2.52173e-012
Gmin = 2.70769e-013
Gmin = 0
Gmin stepping succeeded in finding the operating point.


Date: Tue Oct 29 14:07:47 2019
Total elapsed time: 0.458 seconds.

tnom = 27
temp = 27
method = modified trap
totiter = 3359
traniter = 2902
tranpoints = 1244
accept = 1202
rejected = 42
matrix size = 95
fillins = 130
solver = Alternate
Matrix Compiler1: 21.50 KB object code size  4.8/3.5/[2.5]
Matrix Compiler2: 13.31 KB object code size  2.5/2.7/[1.5]


